<?xml version="1.0" encoding="UTF-8"?>

<!-- generated on 09/01/20 22:32:25 by Eclipse SUMO netconvert Version 1.6.0
<configuration xmlns:xsi="http://www.w3.org/2001/XMLSchema-instance" xsi:noNamespaceSchemaLocation="http://sumo.dlr.de/xsd/netconvertConfiguration.xsd">

    <input>
        <osm-files value="map.osm"/>
    </input>

    <output>
        <output-file value="map.net.xml"/>
    </output>

    <projection>
        <proj.utm value="true"/>
    </projection>

    <report>
        <aggregate-warnings value="5"/>
    </report>

</configuration>
-->

<net version="1.6" junctionCornerDetail="5" limitTurnSpeed="5.50" xmlns:xsi="http://www.w3.org/2001/XMLSchema-instance" xsi:noNamespaceSchemaLocation="http://sumo.dlr.de/xsd/net_file.xsd">

    <location netOffset="-442988.61,-4412726.52" convBoundary="0.00,0.00,16188.82,18958.81" origBoundary="116.332119,39.863253,116.559184,40.034403" projParameter="+proj=utm +zone=50 +ellps=WGS84 +datum=WGS84 +units=m +no_defs"/>

    <type id="highway.bridleway" priority="1" numLanes="1" speed="2.78" allow="pedestrian" oneway="1" width="2.00"/>
    <type id="highway.bus_guideway" priority="1" numLanes="1" speed="27.78" allow="bus" oneway="1"/>
    <type id="highway.cycleway" priority="1" numLanes="1" speed="8.33" allow="bicycle" oneway="0" width="1.00"/>
    <type id="highway.footway" priority="1" numLanes="1" speed="2.78" allow="pedestrian" oneway="1" width="2.00"/>
    <type id="highway.ford" priority="1" numLanes="1" speed="2.78" allow="army" oneway="0"/>
    <type id="highway.living_street" priority="2" numLanes="1" speed="2.78" disallow="tram rail_urban rail rail_electric rail_fast ship" oneway="0"/>
    <type id="highway.motorway" priority="14" numLanes="2" speed="39.44" allow="private emergency authority army vip passenger hov taxi bus coach delivery truck trailer motorcycle evehicle custom1 custom2" oneway="1"/>
    <type id="highway.motorway_link" priority="9" numLanes="1" speed="22.22" allow="private emergency authority army vip passenger hov taxi bus coach delivery truck trailer motorcycle evehicle custom1 custom2" oneway="1"/>
    <type id="highway.path" priority="1" numLanes="1" speed="2.78" allow="pedestrian bicycle" oneway="1" width="2.00"/>
    <type id="highway.pedestrian" priority="1" numLanes="1" speed="2.78" allow="pedestrian" oneway="1" width="2.00"/>
    <type id="highway.primary" priority="12" numLanes="2" speed="27.78" disallow="tram rail_urban rail rail_electric rail_fast ship" oneway="0"/>
    <type id="highway.primary_link" priority="7" numLanes="1" speed="22.22" disallow="tram rail_urban rail rail_electric rail_fast ship" oneway="0"/>
    <type id="highway.raceway" priority="15" numLanes="2" speed="83.33" allow="vip" oneway="0"/>
    <type id="highway.residential" priority="3" numLanes="1" speed="13.89" disallow="tram rail_urban rail rail_electric rail_fast ship" oneway="0"/>
    <type id="highway.secondary" priority="11" numLanes="1" speed="27.78" disallow="tram rail_urban rail rail_electric rail_fast ship" oneway="0"/>
    <type id="highway.secondary_link" priority="6" numLanes="1" speed="22.22" disallow="tram rail_urban rail rail_electric rail_fast ship" oneway="0"/>
    <type id="highway.service" priority="1" numLanes="1" speed="5.56" allow="pedestrian delivery bicycle" oneway="0"/>
    <type id="highway.stairs" priority="1" numLanes="1" speed="1.39" allow="pedestrian" oneway="1" width="2.00"/>
    <type id="highway.step" priority="1" numLanes="1" speed="1.39" allow="pedestrian" oneway="1" width="2.00"/>
    <type id="highway.steps" priority="1" numLanes="1" speed="1.39" allow="pedestrian" oneway="1" width="2.00"/>
    <type id="highway.tertiary" priority="10" numLanes="1" speed="22.22" disallow="tram rail_urban rail rail_electric rail_fast ship" oneway="0"/>
    <type id="highway.tertiary_link" priority="5" numLanes="1" speed="22.22" disallow="tram rail_urban rail rail_electric rail_fast ship" oneway="0"/>
    <type id="highway.track" priority="1" numLanes="1" speed="5.56" disallow="tram rail_urban rail rail_electric rail_fast ship" oneway="0"/>
    <type id="highway.trunk" priority="13" numLanes="2" speed="27.78" disallow="pedestrian bicycle tram rail_urban rail rail_electric rail_fast ship" oneway="0"/>
    <type id="highway.trunk_link" priority="8" numLanes="1" speed="22.22" disallow="pedestrian bicycle tram rail_urban rail rail_electric rail_fast ship" oneway="0"/>
    <type id="highway.unclassified" priority="4" numLanes="1" speed="13.89" disallow="tram rail_urban rail rail_electric rail_fast ship" oneway="0"/>
    <type id="highway.unsurfaced" priority="1" numLanes="1" speed="8.33" disallow="tram rail_urban rail rail_electric rail_fast ship" oneway="0"/>
    <type id="railway.highspeed" priority="21" numLanes="1" speed="69.44" allow="rail_fast" oneway="1"/>
    <type id="railway.light_rail" priority="19" numLanes="1" speed="27.78" allow="rail_urban" oneway="1"/>
    <type id="railway.preserved" priority="16" numLanes="1" speed="27.78" allow="rail" oneway="1"/>
    <type id="railway.rail" priority="20" numLanes="1" speed="44.44" allow="rail" oneway="1"/>
    <type id="railway.subway" priority="18" numLanes="1" speed="27.78" allow="rail_urban" oneway="1"/>
    <type id="railway.tram" priority="17" numLanes="1" speed="13.89" allow="tram" oneway="1"/>

    <edge id=":1239554876_0" function="internal">
        <lane id=":1239554876_0_0" index="0" disallow="tram rail_urban rail rail_electric rail_fast ship" speed="3.65" length="4.67" shape="11454.08,13646.80 11453.93,13645.37 11454.29,13644.55 11455.16,13644.35 11456.54,13644.76"/>
    </edge>
    <edge id=":1239554946_0" function="internal">
        <lane id=":1239554946_0_0" index="0" disallow="tram rail_urban rail rail_electric rail_fast ship" speed="11.22" length="13.92" shape="11446.87,13834.32 11444.88,13832.76 11442.02,13831.70 11438.30,13831.13 11433.72,13831.05"/>
    </edge>
    <edge id=":1239554946_1" function="internal">
        <lane id=":1239554946_1_0" index="0" disallow="tram rail_urban rail rail_electric rail_fast ship" speed="22.22" length="16.32" shape="11446.87,13834.32 11436.10,13822.06"/>
    </edge>
    <edge id=":1239554946_2" function="internal">
        <lane id=":1239554946_2_0" index="0" disallow="tram rail_urban rail rail_electric rail_fast ship" speed="3.65" length="2.34" shape="11446.87,13834.32 11446.69,13832.89 11447.03,13832.07"/>
    </edge>
    <edge id=":1239554946_9" function="internal">
        <lane id=":1239554946_9_0" index="0" disallow="tram rail_urban rail rail_electric rail_fast ship" speed="3.65" length="2.34" shape="11447.03,13832.07 11447.90,13831.85 11449.29,13832.23"/>
    </edge>
    <edge id=":1239554946_3" function="internal">
        <lane id=":1239554946_3_0" index="0" disallow="tram rail_urban rail rail_electric rail_fast ship" speed="22.22" length="16.36" shape="11438.49,13819.94 11449.29,13832.23"/>
    </edge>
    <edge id=":1239554946_4" function="internal">
        <lane id=":1239554946_4_0" index="0" disallow="tram rail_urban rail rail_electric rail_fast ship" speed="7.38" length="7.28" shape="11438.49,13819.94 11441.73,13824.62 11441.86,13826.20"/>
    </edge>
    <edge id=":1239554946_5" function="internal">
        <lane id=":1239554946_5_0" index="0" disallow="tram rail_urban rail rail_electric rail_fast ship" speed="3.65" length="2.34" shape="11438.49,13819.94 11438.69,13821.37 11438.36,13822.20"/>
    </edge>
    <edge id=":1239554946_10" function="internal">
        <lane id=":1239554946_10_0" index="0" disallow="tram rail_urban rail rail_electric rail_fast ship" speed="7.38" length="10.96" shape="11441.86,13826.20 11442.01,13828.03 11439.34,13830.18 11433.72,13831.05"/>
    </edge>
    <edge id=":1239554946_11" function="internal">
        <lane id=":1239554946_11_0" index="0" disallow="tram rail_urban rail rail_electric rail_fast ship" speed="3.65" length="2.34" shape="11438.36,13822.20 11437.49,13822.43 11436.10,13822.06"/>
    </edge>
    <edge id=":1239554946_6" function="internal">
        <lane id=":1239554946_6_0" index="0" disallow="tram rail_urban rail rail_electric rail_fast ship" speed="5.52" length="9.50" shape="11433.61,13827.85 11436.54,13827.40 11437.93,13826.28 11437.78,13824.50 11436.10,13822.06"/>
    </edge>
    <edge id=":1239554946_7" function="internal">
        <lane id=":1239554946_7_0" index="0" disallow="tram rail_urban rail rail_electric rail_fast ship" speed="12.27" length="16.76" shape="11433.61,13827.85 11438.93,13827.98 11443.31,13828.75 11446.77,13830.17 11449.29,13832.23"/>
    </edge>
    <edge id=":1239554946_8" function="internal">
        <lane id=":1239554946_8_0" index="0" disallow="tram rail_urban rail rail_electric rail_fast ship" speed="3.65" length="4.67" shape="11433.61,13827.85 11434.83,13828.61 11435.26,13829.40 11434.89,13830.21 11433.72,13831.05"/>
    </edge>
    <edge id=":1239554964_0" function="internal">
        <lane id=":1239554964_0_0" index="0" disallow="tram rail_urban rail rail_electric rail_fast ship" speed="6.20" length="9.05" shape="11709.79,13805.53 11711.47,13807.44 11713.29,13808.24 11715.25,13807.94 11717.37,13806.54"/>
    </edge>
    <edge id=":1239554964_1" function="internal">
        <lane id=":1239554964_1_0" index="0" disallow="tram rail_urban rail rail_electric rail_fast ship" speed="3.65" length="4.67" shape="11709.79,13805.53 11709.78,13806.97 11709.33,13807.75 11708.44,13807.85 11707.11,13807.28"/>
    </edge>
    <edge id=":1239554964_2" function="internal">
        <lane id=":1239554964_2_0" index="0" disallow="tram rail_urban rail rail_electric rail_fast ship" speed="7.08" length="9.79" shape="11706.45,13816.08 11708.03,13814.22 11708.67,13812.13 11708.36,13809.81 11707.11,13807.28"/>
    </edge>
    <edge id=":1239554964_3" function="internal">
        <lane id=":1239554964_3_0" index="0" disallow="tram rail_urban rail rail_electric rail_fast ship" speed="27.78" length="14.50" shape="11706.45,13816.08 11717.37,13806.54"/>
    </edge>
    <edge id=":1281142632_0" function="internal">
        <lane id=":1281142632_0_0" index="0" disallow="tram rail_urban rail rail_electric rail_fast ship" speed="6.50" length="9.03" shape="11284.87,14231.26 11283.00,14229.63 11281.07,14228.99 11279.06,14229.34 11276.98,14230.68"/>
    </edge>
    <edge id=":1281142632_1" function="internal">
        <lane id=":1281142632_1_0" index="0" disallow="tram rail_urban rail rail_electric rail_fast ship" speed="22.22" length="13.59" shape="11284.87,14231.26 11276.07,14220.91"/>
    </edge>
    <edge id=":1281142632_2" function="internal">
        <lane id=":1281142632_2_0" index="0" disallow="tram rail_urban rail rail_electric rail_fast ship" speed="7.82" length="5.99" shape="11284.87,14231.26 11283.43,14228.37 11283.20,14225.62"/>
    </edge>
    <edge id=":1281142632_3" function="internal">
        <lane id=":1281142632_3_0" index="0" disallow="tram rail_urban rail rail_electric rail_fast ship" speed="3.65" length="2.34" shape="11284.87,14231.26 11284.69,14229.83 11285.04,14229.01"/>
    </edge>
    <edge id=":1281142632_16" function="internal">
        <lane id=":1281142632_16_0" index="0" disallow="tram rail_urban rail rail_electric rail_fast ship" speed="7.82" length="7.50" shape="11283.20,14225.62 11283.14,14224.87 11283.96,14221.46 11285.82,14218.81"/>
    </edge>
    <edge id=":1281142632_17" function="internal">
        <lane id=":1281142632_17_0" index="0" disallow="tram rail_urban rail rail_electric rail_fast ship" speed="3.65" length="2.34" shape="11285.04,14229.01 11285.90,14228.79 11287.29,14229.18"/>
    </edge>
    <edge id=":1281142632_4" function="internal">
        <lane id=":1281142632_4_0" index="0" disallow="tram rail_urban rail rail_electric rail_fast ship" speed="6.53" length="9.09" shape="11287.91,14221.23 11286.27,14223.11 11285.62,14225.06 11285.96,14227.08 11287.29,14229.18"/>
    </edge>
    <edge id=":1281142632_5" function="internal">
        <lane id=":1281142632_5_0" index="0" disallow="tram rail_urban rail rail_electric rail_fast ship" speed="13.89" length="14.46" shape="11287.91,14221.23 11276.98,14230.68"/>
    </edge>
    <edge id=":1281142632_6" function="internal">
        <lane id=":1281142632_6_0" index="0" disallow="tram rail_urban rail rail_electric rail_fast ship" speed="7.59" length="6.20" shape="11287.91,14221.23 11285.16,14222.69 11282.10,14223.13"/>
    </edge>
    <edge id=":1281142632_7" function="internal">
        <lane id=":1281142632_7_0" index="0" disallow="tram rail_urban rail rail_electric rail_fast ship" speed="3.65" length="2.34" shape="11287.91,14221.23 11286.48,14221.41 11285.65,14221.06"/>
    </edge>
    <edge id=":1281142632_18" function="internal">
        <lane id=":1281142632_18_0" index="0" disallow="tram rail_urban rail rail_electric rail_fast ship" speed="7.59" length="6.60" shape="11282.10,14223.13 11281.82,14223.17 11278.57,14222.60 11276.07,14220.91"/>
    </edge>
    <edge id=":1281142632_19" function="internal">
        <lane id=":1281142632_19_0" index="0" disallow="tram rail_urban rail rail_electric rail_fast ship" speed="3.65" length="2.34" shape="11285.65,14221.06 11285.43,14220.20 11285.82,14218.81"/>
    </edge>
    <edge id=":1281142632_8" function="internal">
        <lane id=":1281142632_8_0" index="0" disallow="tram rail_urban rail rail_electric rail_fast ship" speed="6.24" length="8.33" shape="11278.53,14218.85 11280.12,14220.21 11281.87,14220.66 11283.77,14220.19 11285.82,14218.81"/>
    </edge>
    <edge id=":1281142632_9" function="internal">
        <lane id=":1281142632_9_0" index="0" disallow="tram rail_urban rail rail_electric rail_fast ship" speed="22.22" length="13.54" shape="11278.53,14218.85 11287.29,14229.18"/>
    </edge>
    <edge id=":1281142632_10" function="internal">
        <lane id=":1281142632_10_0" index="0" disallow="tram rail_urban rail rail_electric rail_fast ship" speed="7.69" length="5.37" shape="11278.53,14218.85 11279.78,14221.62 11279.82,14223.95"/>
    </edge>
    <edge id=":1281142632_11" function="internal">
        <lane id=":1281142632_11_0" index="0" disallow="tram rail_urban rail rail_electric rail_fast ship" speed="3.65" length="2.34" shape="11278.53,14218.85 11278.68,14220.29 11278.33,14221.11"/>
    </edge>
    <edge id=":1281142632_20" function="internal">
        <lane id=":1281142632_20_0" index="0" disallow="tram rail_urban rail rail_electric rail_fast ship" speed="7.69" length="7.49" shape="11279.82,14223.95 11279.83,14224.93 11278.84,14228.16 11276.98,14230.68"/>
    </edge>
    <edge id=":1281142632_21" function="internal">
        <lane id=":1281142632_21_0" index="0" disallow="tram rail_urban rail rail_electric rail_fast ship" speed="3.65" length="2.34" shape="11278.33,14221.11 11277.46,14221.32 11276.07,14220.91"/>
    </edge>
    <edge id=":1281142632_12" function="internal">
        <lane id=":1281142632_12_0" index="0" disallow="tram rail_urban rail rail_electric rail_fast ship" speed="6.35" length="8.45" shape="11274.88,14228.26 11276.55,14226.42 11277.31,14224.58 11277.15,14222.74 11276.07,14220.91"/>
    </edge>
    <edge id=":1281142632_13" function="internal">
        <lane id=":1281142632_13_0" index="0" disallow="tram rail_urban rail rail_electric rail_fast ship" speed="13.89" length="14.46" shape="11274.88,14228.26 11285.82,14218.81"/>
    </edge>
    <edge id=":1281142632_14" function="internal">
        <lane id=":1281142632_14_0" index="0" disallow="tram rail_urban rail rail_electric rail_fast ship" speed="7.79" length="5.94" shape="11274.88,14228.26 11277.76,14226.82 11280.47,14226.59"/>
    </edge>
    <edge id=":1281142632_15" function="internal">
        <lane id=":1281142632_15_0" index="0" disallow="tram rail_urban rail rail_electric rail_fast ship" speed="3.65" length="2.34" shape="11274.88,14228.26 11276.31,14228.08 11277.14,14228.43"/>
    </edge>
    <edge id=":1281142632_22" function="internal">
        <lane id=":1281142632_22_0" index="0" disallow="tram rail_urban rail rail_electric rail_fast ship" speed="7.79" length="7.51" shape="11280.47,14226.59 11281.25,14226.52 11284.65,14227.33 11287.29,14229.18"/>
    </edge>
    <edge id=":1281142632_23" function="internal">
        <lane id=":1281142632_23_0" index="0" disallow="tram rail_urban rail rail_electric rail_fast ship" speed="3.65" length="2.34" shape="11277.14,14228.43 11277.36,14229.29 11276.98,14230.68"/>
    </edge>
    <edge id=":1281142635_0" function="internal">
        <lane id=":1281142635_0_0" index="0" disallow="tram rail_urban rail rail_electric rail_fast ship" speed="22.22" length="14.38" shape="11240.47,15589.98 11226.13,15588.85"/>
    </edge>
    <edge id=":1281142635_1" function="internal">
        <lane id=":1281142635_1_0" index="0" disallow="tram rail_urban rail rail_electric rail_fast ship" speed="8.14" length="5.83" shape="11240.47,15589.98 11236.74,15589.12 11235.11,15587.96"/>
    </edge>
    <edge id=":1281142635_2" function="internal">
        <lane id=":1281142635_2_0" index="0" disallow="tram rail_urban rail rail_electric rail_fast ship" speed="3.65" length="2.34" shape="11240.47,15589.98 11239.34,15589.09 11239.00,15588.26"/>
    </edge>
    <edge id=":1281142635_9" function="internal">
        <lane id=":1281142635_9_0" index="0" disallow="tram rail_urban rail rail_electric rail_fast ship" speed="8.14" length="8.41" shape="11235.11,15587.96 11234.12,15587.25 11232.62,15584.35 11232.24,15580.44"/>
    </edge>
    <edge id=":1281142635_10" function="internal">
        <lane id=":1281142635_10_0" index="0" disallow="tram rail_urban rail rail_electric rail_fast ship" speed="3.65" length="2.34" shape="11239.00,15588.26 11239.46,15587.49 11240.73,15586.79"/>
    </edge>
    <edge id=":1281142635_3" function="internal">
        <lane id=":1281142635_3_0" index="0" disallow="tram rail_urban rail rail_electric rail_fast ship" speed="6.67" length="9.23" shape="11235.44,15580.56 11235.68,15583.12 11236.64,15585.01 11238.33,15586.24 11240.73,15586.79"/>
    </edge>
    <edge id=":1281142635_4" function="internal">
        <lane id=":1281142635_4_0" index="0" disallow="tram rail_urban rail rail_electric rail_fast ship" speed="7.94" length="14.34" shape="11235.44,15580.56 11234.72,15584.45 11232.93,15587.12 11230.07,15588.59 11226.13,15588.85"/>
    </edge>
    <edge id=":1281142635_5" function="internal">
        <lane id=":1281142635_5_0" index="0" disallow="tram rail_urban rail rail_electric rail_fast ship" speed="3.65" length="4.67" shape="11235.44,15580.56 11234.59,15581.73 11233.77,15582.10 11232.99,15581.67 11232.24,15580.44"/>
    </edge>
    <edge id=":1281142635_6" function="internal">
        <lane id=":1281142635_6_0" index="0" disallow="tram rail_urban rail rail_electric rail_fast ship" speed="6.43" length="9.03" shape="11226.37,15585.66 11228.86,15585.50 11230.66,15584.57 11231.79,15582.89 11232.24,15580.44"/>
    </edge>
    <edge id=":1281142635_7" function="internal">
        <lane id=":1281142635_7_0" index="0" disallow="tram rail_urban rail rail_electric rail_fast ship" speed="22.22" length="14.40" shape="11226.37,15585.66 11240.73,15586.79"/>
    </edge>
    <edge id=":1281142635_8" function="internal">
        <lane id=":1281142635_8_0" index="0" disallow="tram rail_urban rail rail_electric rail_fast ship" speed="3.65" length="2.34" shape="11226.37,15585.66 11227.51,15586.55 11227.85,15587.38"/>
    </edge>
    <edge id=":1281142635_11" function="internal">
        <lane id=":1281142635_11_0" index="0" disallow="tram rail_urban rail rail_electric rail_fast ship" speed="3.65" length="2.34" shape="11227.85,15587.38 11227.39,15588.15 11226.13,15588.85"/>
    </edge>
    <edge id=":1281142636_0" function="internal">
        <lane id=":1281142636_0_0" index="0" disallow="tram rail_urban rail rail_electric rail_fast ship" speed="6.68" length="9.26" shape="11234.92,15217.78 11232.47,15218.04 11230.65,15219.05 11229.46,15220.82 11228.90,15223.34"/>
    </edge>
    <edge id=":1281142636_1" function="internal">
        <lane id=":1281142636_1_0" index="0" disallow="tram rail_urban rail rail_electric rail_fast ship" speed="22.22" length="14.41" shape="11234.92,15217.78 11220.51,15217.20"/>
    </edge>
    <edge id=":1281142636_2" function="internal">
        <lane id=":1281142636_2_0" index="0" disallow="tram rail_urban rail rail_electric rail_fast ship" speed="6.41" length="9.04" shape="11225.71,15223.07 11225.56,15220.58 11224.65,15218.77 11222.97,15217.64 11220.51,15217.20"/>
    </edge>
    <edge id=":1281142636_3" function="internal">
        <lane id=":1281142636_3_0" index="0" disallow="tram rail_urban rail rail_electric rail_fast ship" speed="3.65" length="4.67" shape="11225.71,15223.07 11226.61,15221.94 11227.44,15221.61 11228.20,15222.07 11228.90,15223.34"/>
    </edge>
    <edge id=":1346794695_0" function="internal">
        <lane id=":1346794695_0_0" index="0" disallow="tram rail_urban rail rail_electric rail_fast ship" speed="6.68" length="9.19" shape="11286.91,13886.99 11286.44,13884.57 11285.29,13882.84 11283.46,13881.80 11280.94,13881.43"/>
    </edge>
    <edge id=":1346794695_1" function="internal">
        <lane id=":1346794695_1_0" index="0" disallow="tram rail_urban rail rail_electric rail_fast ship" speed="13.89" length="14.33" shape="11286.91,13886.99 11286.56,13872.66"/>
    </edge>
    <edge id=":1346794695_2" function="internal">
        <lane id=":1346794695_2_0" index="0" disallow="tram rail_urban rail rail_electric rail_fast ship" speed="3.65" length="2.34" shape="11286.91,13886.99 11287.65,13885.75 11288.43,13885.32"/>
    </edge>
    <edge id=":1346794695_9" function="internal">
        <lane id=":1346794695_9_0" index="0" disallow="tram rail_urban rail rail_electric rail_fast ship" speed="3.65" length="2.34" shape="11288.43,13885.32 11289.25,13885.68 11290.10,13886.84"/>
    </edge>
    <edge id=":1346794695_3" function="internal">
        <lane id=":1346794695_3_0" index="0" disallow="tram rail_urban rail rail_electric rail_fast ship" speed="13.89" length="14.20" shape="11289.76,13872.65 11290.10,13886.84"/>
    </edge>
    <edge id=":1346794695_4" function="internal">
        <lane id=":1346794695_4_0" index="0" disallow="tram rail_urban rail rail_electric rail_fast ship" speed="7.98" length="5.72" shape="11289.76,13872.65 11289.22,13876.51 11288.29,13878.07"/>
    </edge>
    <edge id=":1346794695_5" function="internal">
        <lane id=":1346794695_5_0" index="0" disallow="tram rail_urban rail rail_electric rail_fast ship" speed="3.65" length="2.34" shape="11289.76,13872.65 11288.96,13873.85 11288.17,13874.25"/>
    </edge>
    <edge id=":1346794695_10" function="internal">
        <lane id=":1346794695_10_0" index="0" disallow="tram rail_urban rail rail_electric rail_fast ship" speed="7.98" length="8.52" shape="11288.29,13878.07 11287.57,13879.27 11284.81,13880.91 11280.94,13881.43"/>
    </edge>
    <edge id=":1346794695_11" function="internal">
        <lane id=":1346794695_11_0" index="0" disallow="tram rail_urban rail rail_electric rail_fast ship" speed="3.65" length="2.34" shape="11288.17,13874.25 11287.36,13873.85 11286.56,13872.66"/>
    </edge>
    <edge id=":1346794695_6" function="internal">
        <lane id=":1346794695_6_0" index="0" disallow="tram rail_urban rail rail_electric rail_fast ship" speed="6.48" length="9.03" shape="11280.96,13878.24 11283.42,13877.90 11285.17,13876.86 11286.22,13875.11 11286.56,13872.66"/>
    </edge>
    <edge id=":1346794695_7" function="internal">
        <lane id=":1346794695_7_0" index="0" disallow="tram rail_urban rail rail_electric rail_fast ship" speed="8.15" length="14.16" shape="11280.96,13878.24 11284.82,13878.80 11287.62,13880.42 11289.39,13883.10 11290.10,13886.84"/>
    </edge>
    <edge id=":1346794695_8" function="internal">
        <lane id=":1346794695_8_0" index="0" disallow="tram rail_urban rail rail_electric rail_fast ship" speed="3.65" length="4.67" shape="11280.96,13878.24 11282.16,13879.04 11282.55,13879.85 11282.15,13880.64 11280.94,13881.43"/>
    </edge>
    <edge id=":1346794703_0" function="internal">
        <lane id=":1346794703_0_0" index="0" disallow="tram rail_urban rail rail_electric rail_fast ship" speed="22.22" length="5.01" shape="11510.82,13908.53 11507.56,13904.73"/>
    </edge>
    <edge id=":1346794703_1" function="internal">
        <lane id=":1346794703_1_0" index="0" disallow="tram rail_urban rail rail_electric rail_fast ship" speed="3.65" length="2.34" shape="11510.82,13908.53 11510.65,13907.10 11511.00,13906.28"/>
    </edge>
    <edge id=":1346794703_4" function="internal">
        <lane id=":1346794703_4_0" index="0" disallow="tram rail_urban rail rail_electric rail_fast ship" speed="3.65" length="2.34" shape="11511.00,13906.28 11511.87,13906.06 11513.26,13906.45"/>
    </edge>
    <edge id=":1346794703_2" function="internal">
        <lane id=":1346794703_2_0" index="0" disallow="tram rail_urban rail rail_electric rail_fast ship" speed="22.22" length="5.02" shape="11509.99,13902.64 11513.26,13906.45"/>
    </edge>
    <edge id=":1346794703_3" function="internal">
        <lane id=":1346794703_3_0" index="0" disallow="tram rail_urban rail rail_electric rail_fast ship" speed="3.65" length="2.34" shape="11509.99,13902.64 11510.16,13904.07 11509.82,13904.90"/>
    </edge>
    <edge id=":1346794703_5" function="internal">
        <lane id=":1346794703_5_0" index="0" disallow="tram rail_urban rail rail_electric rail_fast ship" speed="3.65" length="2.34" shape="11509.82,13904.90 11508.95,13905.12 11507.56,13904.73"/>
    </edge>
    <edge id=":1346794709_0" function="internal">
        <lane id=":1346794709_0_0" index="0" disallow="tram rail_urban rail rail_electric rail_fast ship" speed="6.35" length="9.04" shape="10848.98,13934.63 10847.16,13932.92 10845.25,13932.25 10843.27,13932.62 10841.21,13934.05"/>
    </edge>
    <edge id=":1346794709_1" function="internal">
        <lane id=":1346794709_1_0" index="0" disallow="tram rail_urban rail rail_electric rail_fast ship" speed="13.89" length="14.44" shape="10848.98,13934.63 10839.90,13923.41"/>
    </edge>
    <edge id=":1346794709_2" function="internal">
        <lane id=":1346794709_2_0" index="0" disallow="tram rail_urban rail rail_electric rail_fast ship" speed="3.65" length="2.34" shape="10848.98,13934.63 10848.86,13933.19 10849.23,13932.38"/>
    </edge>
    <edge id=":1346794709_9" function="internal">
        <lane id=":1346794709_9_0" index="0" disallow="tram rail_urban rail rail_electric rail_fast ship" speed="3.65" length="2.34" shape="10849.23,13932.38 10850.11,13932.20 10851.48,13932.64"/>
    </edge>
    <edge id=":1346794709_3" function="internal">
        <lane id=":1346794709_3_0" index="0" disallow="tram rail_urban rail rail_electric rail_fast ship" speed="13.89" length="14.49" shape="10842.37,13921.37 10851.48,13932.64"/>
    </edge>
    <edge id=":1346794709_4" function="internal">
        <lane id=":1346794709_4_0" index="0" disallow="tram rail_urban rail rail_electric rail_fast ship" speed="8.21" length="5.89" shape="10842.37,13921.37 10844.33,13924.63 10844.62,13926.70"/>
    </edge>
    <edge id=":1346794709_5" function="internal">
        <lane id=":1346794709_5_0" index="0" disallow="tram rail_urban rail rail_electric rail_fast ship" speed="3.65" length="2.34" shape="10842.37,13921.37 10842.51,13922.81 10842.15,13923.63"/>
    </edge>
    <edge id=":1346794709_10" function="internal">
        <lane id=":1346794709_10_0" index="0" disallow="tram rail_urban rail rail_electric rail_fast ship" speed="8.21" length="8.43" shape="10844.62,13926.70 10844.79,13927.83 10843.75,13930.97 10841.21,13934.05"/>
    </edge>
    <edge id=":1346794709_11" function="internal">
        <lane id=":1346794709_11_0" index="0" disallow="tram rail_urban rail rail_electric rail_fast ship" speed="3.65" length="2.34" shape="10842.15,13923.63 10841.28,13923.82 10839.90,13923.41"/>
    </edge>
    <edge id=":1346794709_6" function="internal">
        <lane id=":1346794709_6_0" index="0" disallow="tram rail_urban rail rail_electric rail_fast ship" speed="6.76" length="9.38" shape="10839.04,13931.70 10840.73,13929.67 10841.43,13927.61 10841.16,13925.52 10839.90,13923.41"/>
    </edge>
    <edge id=":1346794709_7" function="internal">
        <lane id=":1346794709_7_0" index="0" disallow="tram rail_urban rail rail_electric rail_fast ship" speed="7.87" length="14.48" shape="10839.04,13931.70 10842.34,13929.42 10845.51,13928.82 10848.56,13929.89 10851.48,13932.64"/>
    </edge>
    <edge id=":1346794709_8" function="internal">
        <lane id=":1346794709_8_0" index="0" disallow="tram rail_urban rail rail_electric rail_fast ship" speed="3.65" length="4.67" shape="10839.04,13931.70 10840.46,13931.47 10841.30,13931.78 10841.55,13932.64 10841.21,13934.05"/>
    </edge>
    <edge id=":1346794713_0" function="internal">
        <lane id=":1346794713_0_0" index="0" allow="pedestrian delivery bicycle" speed="8.14" length="6.28" shape="10840.77,14435.73 10840.45,14433.72 10839.97,14432.10 10839.32,14430.87 10838.52,14430.02"/>
    </edge>
    <edge id=":1346794713_1" function="internal">
        <lane id=":1346794713_1_0" index="0" allow="pedestrian delivery bicycle" speed="6.77" length="10.80" shape="10840.77,14435.73 10840.87,14432.72 10841.93,14430.58 10843.96,14429.32 10846.94,14428.93"/>
    </edge>
    <edge id=":1346794713_2" function="internal">
        <lane id=":1346794713_2_0" index="0" allow="pedestrian delivery bicycle" speed="3.65" length="4.67" shape="10840.77,14435.73 10841.43,14434.45 10842.19,14433.96 10843.02,14434.27 10843.95,14435.38"/>
    </edge>
    <edge id=":1346794713_3" function="internal">