<?xml version="1.0" encoding="UTF-8"?>

<!-- generated on 09/01/20 22:32:35 by Eclipse SUMO polyconvert Version 1.6.0
<configuration xmlns:xsi="http://www.w3.org/2001/XMLSchema-instance" xsi:noNamespaceSchemaLocation="http://sumo.dlr.de/xsd/polyconvertConfiguration.xsd">

    <input>
        <net-file value="map.net.xml"/>
        <osm-files value="map.osm"/>
        <type-file value="typemap.xml"/>
    </input>

    <output>
        <output-file value="map.poly.xml"/>
    </output>

    <processing>
        <poi-layer-offset value="5"/>
    </processing>

</configuration>
-->

<additional xmlns:xsi="http://www.w3.org/2001/XMLSchema-instance" xsi:noNamespaceSchemaLocation="http://sumo.dlr.de/xsd/additional_file.xsd">
    <location netOffset="-442988.61,-4412726.52" convBoundary="0.00,0.00,19364.47,18958.81" origBoundary="116.332119,39.863253,116.559184,40.034403" projParameter="+proj=utm +zone=50 +ellps=WGS84 +datum=WGS84 +units=m +no_defs"/>

    <poly id="108381021" type="leisure" color="207,245,201" fill="1" layer="-2.00" shape="11451.131824,13756.760936 11462.188038,13756.694768 11469.654914,13751.777418 11472.230745,13744.203262 11472.564169,13737.141999 11441.800683,13701.274996 11430.187976,13701.100336 11421.238852,13709.434141 11422.261155,13723.313468 11451.131824,13756.760936"/>
    <poly id="137116654" type="building" color="255,230,230" fill="1" layer="-1.00" shape="12073.620013,15343.671631 12149.352000,15343.579871 12149.087272,15356.590038 12073.630265,15356.968765 12073.620013,15343.671631"/>
    <poly id="137116655" type="building" color="255,230,230" fill="1" layer="-1.00" shape="12166.140235,15335.944339 12234.209499,15334.855244 12234.839668,15349.103282 12166.165796,15350.417927 12166.140235,15335.944339"/>
    <poly id="137116656" type="building" color="255,230,230" fill="1" layer="-1.00" shape="12023.124000,15399.156755 12133.019344,15398.052617 12133.926903,15412.987183 12022.752068,15414.209872 12023.124000,15399.156755"/>
    <poly id="221268083" type="building" color="255,230,230" fill="1" layer="-1.00" shape="12096.662649,15522.126447 12095.390056,15510.435091 12142.751474,15505.327332 12144.023995,15517.018696 12096.662649,15522.126447"/>
    <poly id="221268084" type="building" color="255,230,230" fill="1" layer="-1.00" shape="12163.247543,15511.333398 12161.837041,15499.398656 12232.790109,15491.077856 12234.200435,15503.001511 12163.247543,15511.333398"/>
    <poly id="221268085" type="building" color="255,230,230" fill="1" layer="-1.00" shape="12024.513374,15530.178110 12023.145926,15518.343031 12086.089940,15511.122676 12087.457225,15522.946666 12024.513374,15530.178110"/>
    <poly id="224835303" type="building" color="255,230,230" fill="1" layer="-1.00" shape="10947.596424,13760.579525 10972.986607,13794.190566 10992.605570,13781.296417 10967.665174,13747.227511 10947.596424,13760.579525"/>
    <poly id="224835304" type="building" color="255,230,230" fill="1" layer="-1.00" shape="10984.074018,13809.174424 11018.012981,13855.953418 11024.858117,13851.350169 11035.242811,13864.518028 11104.301078,13810.046702 11093.908197,13795.513562 11033.727750,13841.262648 11001.400511,13796.982327 10984.074018,13809.174424"/>
    <poly id="224835305" type="building" color="255,230,230" fill="1" layer="-1.00" shape="11012.539259,13745.590967 11040.692048,13781.460932 11058.492349,13769.943175 11029.873073,13733.165806 11012.539259,13745.590967"/>
    <poly id="224835306" type="building" color="255,230,230" fill="1" layer="-1.00" shape="11074.934460,13762.551568 11100.332302,13797.528217 11116.749565,13786.018939 11092.718084,13749.668757 11074.934460,13762.551568"/>
    <poly id="224843155" type="landuse" color="194,194,130" fill="1" layer="-3.00" shape="10974.899851,13746.317992 10988.183327,13765.828266 10993.748121,13764.096400 11004.287293,13764.654264 11008.333815,13767.404679 11011.290339,13770.627863 11019.779149,13765.326509 10998.234042,13737.841188 10987.392176,13738.062126 10993.791755,13745.892973 10987.002010,13749.785546 10981.859110,13745.043863 10974.899851,13746.317992"/>
    <poly id="224843156" type="landuse" color="194,194,130" fill="1" layer="-3.00" shape="10991.157725,13770.594162 10998.814816,13781.658462 11009.299679,13774.646809 11004.169975,13770.670896 10998.577055,13769.161874 10994.087213,13769.344408 10991.157725,13770.594162"/>
    <poly id="224843157" type="landuse" color="194,194,130" fill="1" layer="-3.00" shape="11027.680332,13791.362574 11030.588520,13785.173689 11021.987804,13771.950659 11014.885148,13774.923841 11027.680332,13791.362574"/>
    <poly id="224843158" type="landuse" color="194,194,130" fill="1" layer="-3.00" shape="11011.820542,13780.658597 11023.986936,13794.770231 11030.087370,13805.388887 11042.025477,13807.159296 11049.296895,13805.272870 11057.078662,13811.552594 11046.124176,13818.555919 11034.217731,13822.024272 11017.680716,13802.378185 11005.492788,13784.703755 11011.820542,13780.658597"/>
    <poly id="224843159" type="landuse" color="194,194,130" fill="1" layer="-3.00" shape="11061.555415,13809.205775 11089.798844,13790.832169 11070.892893,13764.862454 11041.602631,13788.037429 11046.434426,13792.170559 11047.717079,13799.566173 11059.060895,13806.135176 11061.555415,13809.205775"/>
    <poly id="224845787" type="building" color="255,230,230" fill="1" layer="-1.00" shape="10889.759831,13914.058357 10917.004610,13948.024262 10935.293731,13934.139053 10905.785484,13901.418838 10889.759831,13914.058357"/>
    <poly id="224845788" type="building" color="255,230,230" fill="1" layer="-1.00" shape="10920.554551,13954.784555 10974.148414,13910.051134 10985.580337,13922.735315 10931.565613,13967.049424 10920.554551,13954.784555"/>
    <poly id="224845790" type="building" color="255,230,230" fill="1" layer="-1.00" shape="10979.281975,13940.088613 11012.045441,13978.927454 11026.240109,13967.042921 10993.485271,13928.215066 10979.281975,13940.088613"/>
    <poly id="224845792" type="building" color="255,230,230" fill="1" layer="-1.00" shape="10945.727150,14021.650914 11002.411025,13975.456047 11012.380251,13986.295494 10956.939212,14033.293030 10945.727150,14021.650914"/>
    <poly id="224845793" type="building" color="255,230,230" fill="1" layer="-1.00" shape="10901.653643,13971.958958 10935.290066,14011.102972 10947.826959,14000.415971 10914.190555,13961.271902 10901.653643,13971.958958"/>
    <poly id="224845795" type="building" color="255,230,230" fill="1" layer="-1.00" shape="10939.487389,13979.543898 10975.223990,13950.957360 10985.820207,13962.403453 10950.703282,13991.807555 10939.487389,13979.543898"/>
    <poly id="224845797" type="building" color="255,230,230" fill="1" layer="-1.00" shape="10869.015150,13896.091910 10879.407983,13907.749980 10935.259283,13860.749411 10924.444240,13847.040416 10869.015150,13896.091910"/>
    <poly id="224845799" type="building" color="255,230,230" fill="1" layer="-1.00" shape="10907.387551,13851.583507 10922.253606,13839.173040 10890.752586,13801.725465 10875.886508,13814.135992 10907.387551,13851.583507"/>
    <poly id="224845801" type="building" color="255,230,230" fill="1" layer="-1.00" shape="10846.430242,13870.344834 10855.417883,13881.167834 10893.944522,13849.433946 10884.956900,13838.610901 10846.430242,13870.344834"/>
    <poly id="224845802" type="building" color="255,230,230" fill="1" layer="-1.00" shape="10824.992847,13845.190234 10834.310279,13855.478432 10876.522066,13817.572983 10867.204647,13807.284734 10824.992847,13845.190234"/>
    <poly id="224845805" type="building" color="255,230,230" fill="1" layer="-1.00" shape="10835.781135,13895.272299 10862.175616,13925.535938 10876.151350,13915.583763 10848.717596,13884.294126 10835.781135,13895.272299"/>
    <poly id="224845822" type="building" color="255,230,230" fill="1" layer="-1.00" shape="11053.322346,14148.134079 11026.085338,14113.823564 11038.828419,14103.357454 11068.433088,14138.131000 11053.322346,14148.134079"/>
    <poly id="224845823" type="building" color="255,230,230" fill="1" layer="-1.00" shape="11071.244620,14132.919466 11079.841634,14142.779427 11135.979249,14095.212505 11127.385067,14085.818642 11071.244620,14132.919466"/>
    <poly id="224845825" type="building" color="255,230,230" fill="1" layer="-1.00" shape="11048.313326,14104.720904 11058.811360,14115.512819 11094.192234,14086.018820 11085.119934,14075.218254 11048.313326,14104.720904"/>
    <poly id="224845827" type="building" color="255,230,230" fill="1" layer="-1.00" shape="11108.426710,14086.410236 11121.645186,14076.884858 11091.092924,14043.537560 11077.880120,14054.006414 11108.426710,14086.410236"/>
    <poly id="224845828" type="building" color="255,230,230" fill="1" layer="-1.00" shape="11007.035682,14099.298450 10990.327955,14080.985393 11002.592956,14070.522115 11020.712158,14087.883211 11007.035682,14099.298450"/>
    <poly id="224845830" type="building" color="255,230,230" fill="1" layer="-1.00" shape="11018.705620,14069.481275 11028.261808,14081.222297 11081.070049,14032.265455 11073.420490,14022.388675 11018.705620,14069.481275"/>
    <poly id="224845833" type="building" color="255,230,230" fill="1" layer="-1.00" shape="10973.113403,14056.526318 10985.037456,14068.741343 11039.757826,14022.591922 11030.673908,14009.893476 10973.113403,14056.526318"/>
    <poly id="224845834" type="building" color="255,230,230" fill="1" layer="-1.00" shape="11052.099995,14024.881577 11038.721758,14007.957948 11050.992641,13998.438172 11064.843262,14014.415514 11052.099995,14024.881577"/>
    <poly id="224845837" type="building" color="255,230,230" fill="1" layer="-1.00" shape="11159.233913,13821.414455 11158.307064,13785.191313 11191.949757,13784.333856 11192.884917,13820.545850 11159.233913,13821.414455"/>
    <poly id="224845838" type="building" color="255,230,230" fill="1" layer="-1.00" shape="11163.753050,13726.875107 11164.120130,13694.262608 11198.018300,13694.646788 11197.651008,13727.248184 11163.753050,13726.875107"/>
    <poly id="224845841" type="building" color="255,230,230" fill="1" layer="-1.00" shape="11223.426653,13785.365389 11223.567671,13753.453521 11256.772555,13753.597940 11256.631398,13785.509806 11223.426653,13785.365389"/>
    <poly id="224845842" type="building" color="255,230,230" fill="1" layer="-1.00" shape="11211.112659,13821.867985 11211.195913,13805.906423 11256.294330,13806.134675 11256.211049,13822.107334 11211.112659,13821.867985"/>
    <poly id="224845844" type="building" color="255,230,230" fill="1" layer="-1.00" shape="11292.728325,14011.300642 11361.886531,14010.430464 11362.698778,13993.543274 11292.626922,13994.418930 11292.728325,14011.300642"/>
    <poly id="241408770" type="building" color="255,230,230" fill="1" layer="-1.00" shape="11541.498881,14958.750279 11518.047718,14928.566624 11549.915349,14904.356844 11572.966179,14934.698380 11541.498881,14958.750279"/>
    <poly id="241408942" type="building" color="255,230,230" fill="1" layer="-1.00" shape="11541.498881,14958.750279 11560.675726,14983.665076 11592.151515,14959.613204 11572.966179,14934.698380 11541.498881,14958.750279"/>
    <poly id="241409175" type="building" color="255,230,230" fill="1" layer="-1.00" shape="11578.082416,15002.363670 11601.284224,15029.463335 11630.453580,15005.158996 11607.616147,14977.601990 11578.082416,15002.363670"/>
    <poly id="241410647" type="building" color="255,230,230" fill="1" layer="-1.00" shape="11678.670276,15145.979494 11680.739391,15109.283322 11705.050649,15110.648050 11702.972882,15147.344266 11678.670276,15145.979494"/>
    <poly id="241410648" type="building" color="255,230,230" fill="1" layer="-1.00" shape="11642.087468,15100.844992 11632.772960,15089.179468 11622.219885,15075.956313 11649.425146,15054.416436 11669.292627,15079.294086 11642.087468,15100.844992"/>
    <poly id="241410650" type="building" color="255,230,230" fill="1" layer="-1.00" shape="11601.284224,15029.463335 11621.901124,15054.003406 11651.070383,15029.688045 11630.453580,15005.158996 11601.284224,15029.463335"/>
    <poly id="242312467" type="building" color="255,230,230" fill="1" layer="-1.00" shape="11522.786865,15115.842362 11546.042905,15097.755466 11569.940572,15128.480415 11545.863121,15146.239164 11522.786865,15115.842362"/>
    <poly id="242312468" type="residential" color="235,235,227" fill="1" layer="-3.00" shape="11444.959339,14980.228157 11652.951994,14799.728570 11744.702499,14799.315403 11789.199378,14828.608775 11821.898378,14843.554219 11894.663084,14874.878075 11969.180099,14890.830554 11983.716929,14913.731558 11974.776616,15125.318569 11969.641161,15186.462780 11926.720357,15222.435168 11728.951772,15215.218436 11583.368257,15214.254878 11440.286076,15056.565223 11444.959339,14980.228157"/>
    <poly id="242312469" type="building" color="255,230,230" fill="1" layer="-1.00" shape="11452.762101,15035.889833 11478.547136,15015.301303 11501.682331,15044.054894 11475.897334,15064.643347 11452.762101,15035.889833"/>
    <poly id="242312470" type="building" color="255,230,230" fill="1" layer="-1.00" shape="11481.632218,15075.786226 11511.911873,15053.095306 11534.283751,15082.719320 11504.012687,15105.410101 11481.632218,15075.786226"/>
    <poly id="242312471" type="building" color="255,230,230" fill="1" layer="-1.00" shape="11569.940572,15128.480415 11590.886343,15156.659075 11566.800398,15174.417810 11545.863121,15146.239164 11569.940572,15128.480415"/>
    <poly id="244010356" type="parking" color="184,184,179" fill="1" layer="-1.00" shape="11031.832209,13896.360871 11048.297672,13915.507942 11151.782930,14035.812681 11241.552022,13964.169002 11120.008912,13819.652935 11031.832209,13896.360871"/>
    <poly id="271474590" type="building" color="255,230,230" fill="1" layer="-1.00" shape="11637.639516,14339.102221 11648.902435,14329.456223 11692.409706,14379.855072 11681.146809,14389.501006 11637.639516,14339.102221"/>
    <poly id="271474591" type="building" color="255,230,230" fill="1" layer="-1.00" shape="11716.766172,14418.547171 11670.125945,14459.826412 11658.549119,14446.853497 11705.189299,14405.563087 11716.766172,14418.547171"/>
    <poly id="271474592" type="building" color="255,230,230" fill="1" layer="-1.00" shape="11713.865191,14421.694492 11725.124316,14411.415958 11768.663430,14458.718290 11757.404319,14468.996761 11713.865191,14421.694492"/>
    <poly id="271474593" type="building" color="255,230,230" fill="1" layer="-1.00" shape="11730.286548,14530.038752 11741.572547,14542.958007 11789.975924,14501.024949 11778.689948,14488.105624 11730.286548,14530.038752"/>
    <poly id="271474594" type="building" color="255,230,230" fill="1" layer="-1.00" shape="11786.637394,14503.808560 11798.229954,14493.616946 11839.982916,14540.752700 11828.390374,14550.944251 11786.637394,14503.808560"/>
    <poly id="271474595" type="building" color="255,230,230" fill="1" layer="-1.00" shape="11658.681860,14596.618111 11669.984792,14585.151581 11700.803440,14615.280724 11753.973559,14618.482859 11807.102641,14571.671320 11818.576321,14584.600672 11760.852834,14635.457466 11694.120254,14631.259388 11658.681860,14596.618111"/>
    <poly id="271474596" type="building" color="255,230,230" fill="1" layer="-1.00" shape="11588.243298,14513.669956 11601.219791,14502.248833 11631.181402,14536.012347 11650.984589,14536.982031 11680.689548,14510.521440 11691.836098,14522.941976 11657.316162,14553.682324 11621.780366,14551.463406 11588.243298,14513.669956"/>
    <poly id="271474597" type="building" color="255,230,230" fill="1" layer="-1.00" shape="11518.495823,14435.191405 11530.162646,14424.610454 11558.838371,14455.950584 11580.000724,14457.178357 11610.802046,14429.878490 11621.699868,14442.067320 11585.794763,14473.892899 11551.614332,14471.399826 11518.495823,14435.191405"/>
    <poly id="271474598" type="building" color="255,230,230" fill="1" layer="-1.00" shape="11434.872287,14276.613852 11480.765288,14330.216077 11585.566872,14241.193501 11534.051283,14181.008956 11476.562040,14229.846350 11482.193405,14236.427955 11434.872287,14276.613852"/>
    <poly id="271474599" type="building" color="255,230,230" fill="1" layer="-1.00" shape="11423.542883,14132.599248 11437.864213,14148.940721 11472.347042,14118.965497 11458.025733,14102.623960 11423.542883,14132.599248"/>
    <poly id="271474600" type="building" color="255,230,230" fill="1" layer="-1.00" shape="11453.887133,14167.158947 11468.210126,14183.800153 11504.454400,14152.859976 11490.131364,14136.207605 11453.887133,14167.158947"/>
    <poly id="271475401" type="building" color="255,230,230" fill="1" layer="-1.00" shape="11301.747877,14331.777553 11316.799358,14319.022645 11299.853091,14299.167524 11229.036559,14294.998010 11193.467962,14325.846667 11205.296749,14339.383444 11233.433976,14314.983946 11290.751341,14318.901599 11301.747877,14331.777553"/>
    <poly id="271475402" type="leisure" color="207,245,201" fill="1" layer="-2.00" shape="11318.289284,14463.373717 11250.946472,14382.130465 11313.021420,14331.077180 11363.878899,14392.429648 11320.714524,14427.940668 11318.289284,14463.373717"/>
    <poly id="271475402#1" type="sport" color="79,230,125" fill="1" layer="-2.00" shape="11318.289284,14463.373717 11250.946472,14382.130465 11313.021420,14331.077180 11363.878899,14392.429648 11320.714524,14427.940668 11318.289284,14463.373717"/>
    <poly id="271475404" type="building" color="255,230,230" fill="1" layer="-1.00" shape="11326.319564,14464.268963 11335.485903,14475.224640 11341.117967,14470.551250 11366.939678,14472.882618 11367.652657,14465.075397 11375.493986,14465.783137 11376.199103,14458.086959 11384.484620,14458.836442 11411.154705,14437.476557 11394.847148,14417.273316 11392.451126,14419.185692 11373.640474,14395.867444 11335.449230,14426.442582 11340.893764,14433.191697 11337.648138,14435.786258 11335.406193,14457.676817 11327.085988,14456.838800 11326.319564,14464.268963"/>
    <poly id="271475406" type="building" color="255,230,230" fill="1" layer="-1.00" shape="11338.930418,14460.252948 11364.498456,14462.985412 11365.330949,14455.177475 11372.856959,14455.975899 11373.697798,14448.134614 11382.855482,14449.111954 11385.419126,14425.321469 11386.616969,14424.337532 11379.101040,14415.258812 11348.178174,14440.673442 11339.558630,14439.748411 11337.682263,14457.119281 11339.245569,14457.287491 11338.930418,14460.252948"/>
    <poly id="297314730" type="building" color="255,230,230" fill="1" layer="-1.00" shape="12247.847070,14375.124835 12231.935530,14310.142226 12260.671298,14302.758545 12276.968259,14366.540201 12247.847070,14375.124835"/>
    <poly id="297314731" type="building" color="255,230,230" fill="1" layer="-1.00" shape="12360.079389,14398.773365 12341.558953,14335.670558 12370.139498,14328.021814 12386.677645,14392.335053 12360.079389,14398.773365"/>
    <poly id="297314732" type="building" color="255,230,230" fill="1" layer="-1.00" shape="12319.659161,14319.383012 12302.883479,14255.448692 12331.651780,14246.289178 12345.653495,14311.827061 12319.659161,14319.383012"/>
    <poly id="297314733" type="building" color="255,230,230" fill="1" layer="-1.00" shape="12516.793978,14097.537240 12518.632982,14080.599808 12577.391153,14086.938423 12575.543483,14103.875890 12516.793978,14097.537240"/>
    <poly id="297314734" type="building" color="255,230,230" fill="1" layer="-1.00" shape="12581.218564,14050.820629 12583.125504,14033.794023 12638.946113,14039.972674 12637.039114,14057.010364 12581.218564,14050.820629"/>
    <poly id="297314735" type="building" color="255,230,230" fill="1" layer="-1.00" shape="12643.969149,14011.184692 12645.349902,13994.671747 12673.819594,13997.036528 12672.438780,14013.549467 12643.969149,14011.184692"/>
    <poly id="297314736" type="building" color="255,230,230" fill="1" layer="-1.00" shape="12680.826457,14052.304319 12681.985763,14035.870367 12710.120073,14037.848753 12708.960641,14054.271602 12680.826457,14052.304319"/>
    <poly id="297314737" type="building" color="255,230,230" fill="1" layer="-1.00" shape="12717.345206,14089.596778 12718.710317,14073.305927 12749.656717,14075.867464 12748.300077,14092.158260 12717.345206,14089.596778"/>
    <poly id="297314738" type="building" color="255,230,230" fill="1" layer="-1.00" shape="12753.702823,14131.541021 12755.059272,14115.216928 12785.006055,14117.684524 12783.658079,14134.008561 12753.702823,14131.541021"/>
    <poly id="297314741" type="building" color="255,230,230" fill="1" layer="-1.00" shape="12753.387524,14262.305600 12755.199183,14246.456133 12809.293336,14252.601653 12807.481566,14268.451106 12753.387524,14262.305600"/>
    <poly id="297314743" type="building" color="255,230,230" fill="1" layer="-1.00" shape="12597.665992,14194.895554 12599.503075,14177.602969 12629.863725,14180.800101 12628.026575,14198.092678 12597.665992,14194.895554"/>
    <poly id="297314744" type="building" color="255,230,230" fill="1" layer="-1.00" shape="12645.476558,14168.721654 12647.231103,14151.895741 12706.328797,14158.011375 12704.574059,14174.826174 12645.476558,14168.721654"/>
    <poly id="297314745" type="building" color="255,230,230" fill="1" layer="-1.00" shape="12715.512824,14206.029684 12717.159889,14189.781586 12747.382938,14192.824595 12745.735809,14209.072686 12715.512824,14206.029684"/>
    <poly id="297315492" type="building" color="255,230,230" fill="1" layer="-1.00" shape="11626.962911,13676.759974 11668.692010,13723.273379 11678.289057,13714.736219 11671.980235,13707.692329 11683.590160,13697.367271 11685.730318,13699.752014 11682.808756,13702.355588 11687.200852,13707.257601 11697.485857,13698.105899 11655.215420,13651.007293 11645.338093,13659.801438 11649.480923,13664.416330 11652.139274,13662.058500 11654.141923,13664.288660 11643.619123,13673.652728 11637.774447,13667.138874 11626.962911,13676.759974"/>
    <poly id="297315493" type="building" color="255,230,230" fill="1" layer="-1.00" shape="11666.078499,13700.190940 11655.907663,13688.375098 11667.103745,13678.807245 11668.487968,13680.419523 11664.418907,13683.884599 11669.216263,13689.450157 11673.667470,13685.638723 11677.673865,13690.287741 11666.078499,13700.190940"/>
    <poly id="297315494" type="building" color="255,230,230" fill="1" layer="-1.00" shape="11764.288497,13698.352289 11798.614034,13668.645935 11807.666201,13679.025677 11773.340677,13708.731991 11764.288497,13698.352289"/>
    <poly id="297315495" type="building" color="255,230,230" fill="1" layer="-1.00" shape="11748.091804,13741.403544 11739.529837,13731.620327 11760.000711,13713.861542 11768.554133,13723.644832 11748.091804,13741.403544"/>
    <poly id="297315496" type="building" color="255,230,230" fill="1" layer="-1.00" shape="11295.611336,13969.626949 11295.444427,13957.474013 11358.609806,13956.628710 11358.776613,13968.781646 11295.611336,13969.626949"/>
    <poly id="297315497" type="building" color="255,230,230" fill="1" layer="-1.00" shape="11294.642461,13930.562575 11294.550984,13919.596832 11357.983202,13919.060711 11358.083058,13930.015304 11294.642461,13930.562575"/>
    <poly id="297315498" type="building" color="255,230,230" fill="1" layer="-1.00" shape="11294.760972,13892.013349 11294.703046,13880.947509 11359.212639,13880.626922 11359.270471,13891.692761 11294.760972,13892.013349"/>
    <poly id="297315499" type="building" color="255,230,230" fill="1" layer="-1.00" shape="11294.197421,13853.623614 11294.006632,13841.759410 11358.939040,13840.703720 11359.129728,13852.567924 11294.197421,13853.623614"/>
    <poly id="297315500" type="building" color="255,230,230" fill="1" layer="-1.00" shape="11372.289689,13968.434219 11372.227063,13957.989979 11419.797413,13957.704888 11419.859973,13968.149128 11372.289689,13968.434219"/>
    <poly id="297315501" type="building" color="255,230,230" fill="1" layer="-1.00" shape="11372.245645,13929.763878 11372.205106,13918.731233 11437.064806,13918.475798 11437.113856,13929.519490 11372.245645,13929.763878"/>
    <poly id="297315502" type="building" color="255,230,230" fill="1" layer="-1.00" shape="11372.484540,13891.291633 11372.390980,13879.959620 11436.788192,13879.407275 11436.881657,13890.739287 11372.484540,13891.291633"/>
    <poly id="297315503" type="building" color="255,230,230" fill="1" layer="-1.00" shape="11373.092085,13853.072468 11372.889468,13842.062995 11436.677116,13840.892737 11436.879706,13851.913310 11373.092085,13853.072468"/>
    <poly id="297315504" type="building" color="255,230,230" fill="1" layer="-1.00" shape="11327.160146,13766.550046 11335.067166,13759.587617 11382.181796,13812.682452 11374.274790,13819.644833 11327.160146,13766.550046"/>
    <poly id="297316341" type="building" color="255,230,230" fill="1" layer="-1.00" shape="11335.528511,13665.727631 11344.176163,13658.383388 11371.097120,13689.799950 11362.449478,13697.144164 11335.528511,13665.727631"/>
    <poly id="297316342" type="building" color="255,230,230" fill="1" layer="-1.00" shape="11374.363527,13703.432727 11367.320455,13695.017152 11381.992521,13682.830755 11389.044192,13691.257391 11374.363527,13703.432727"/>
    <poly id="297316346" type="building" color="255,230,230" fill="1" layer="-1.00" shape="11535.927068,13907.672973 11496.937677,13860.977411 11507.310939,13852.379889 11546.308846,13899.075453 11535.927068,13907.672973"/>
    <poly id="297316347" type="building" color="255,230,230" fill="1" layer="-1.00" shape="11484.973959,13852.036180 11442.528984,13802.964072 11451.278100,13795.463948 11493.723059,13844.536103 11484.973959,13852.036180"/>
    <poly id="297316348" type="building" color="255,230,230" fill="1" layer="-1.00" shape="11512.767710,13828.283596 11470.715583,13779.220086 11479.108365,13772.088409 11521.160410,13821.140866 11512.767710,13828.283596"/>
    <poly id="297316349" type="building" color="255,230,230" fill="1" layer="-1.00" shape="11540.164066,13803.723230 11498.326046,13756.190018 11506.513844,13749.037400 11548.351851,13796.570656 11540.164066,13803.723230"/>
    <poly id="297316350" type="building" color="255,230,230" fill="1" layer="-1.00" shape="11518.257286,13722.528248 11527.208090,13714.460936 11581.748132,13774.460893 11572.797408,13782.539241 11518.257286,13722.528248"/>
    <poly id="297316351" type="building" color="255,230,230" fill="1" layer="-1.00" shape="11387.573081,13734.987062 11399.022564,13725.028809 11431.741643,13762.371262 11420.292175,13772.329467 11387.573081,13734.987062"/>
    <poly id="297316352" type="building" color="255,230,230" fill="1" layer="-1.00" shape="11436.641690,13780.789258 11445.306313,13773.433927 11434.360926,13760.635158 11425.696365,13768.001601 11436.641690,13780.789258"/>
    <poly id="297316353" type="building" color="255,230,230" fill="1" layer="-1.00" shape="11440.626965,13800.433678 11435.116636,13794.162165 11458.304324,13773.988800 11463.806177,13780.271480 11440.626965,13800.433678"/>
    <poly id="297316975" type="building" color="255,230,230" fill="1" layer="-1.00" shape="12451.380236,14898.091975 12451.415551,14885.171975 12506.093612,14885.329248 12506.049603,14898.238198 12451.380236,14898.091975"/>
    <poly id="297316976" type="building" color="255,230,230" fill="1" layer="-1.00" shape="12505.161307,14966.749375 12504.760437,14927.404067 12581.251686,14925.070129 12581.647494,14963.616302 12505.161307,14966.749375"/>
    <poly id="297316977" type="building" color="255,230,230" fill="1" layer="-1.00" shape="12590.108925,14918.580719 12589.927049,14904.973823 12645.880222,14904.236696 12646.053461,14917.843643 12590.108925,14918.580719"/>
    <poly id="297316978" type="building" color="255,230,230" fill="1" layer="-1.00" shape="12645.061553,14851.674357 12645.023148,14837.766940 12701.586388,14837.626045 12701.624690,14851.533461 12645.061553,14851.674357"/>
    <poly id="297316979" type="building" color="255,230,230" fill="1" layer="-1.00" shape="12583.368861,14806.659659 12583.230469,14796.115966 12635.940724,14795.419912 12636.078978,14805.952506 12583.368861,14806.659659"/>
    <poly id="297316980" type="building" color="255,230,230" fill="1" layer="-1.00" shape="12506.038103,14852.486219 12505.945239,14840.987703 12581.030232,14840.360221 12581.131583,14851.869785 12506.038103,14852.486219"/>
    <poly id="297316981" type="building" color="255,230,230" fill="1" layer="-1.00" shape="12404.017698,14707.092174 12403.546252,14690.745408 12458.036505,14689.205237 12458.499233,14705.540955 12404.017698,14707.092174"/>
    <poly id="297316982" type="building" color="255,230,230" fill="1" layer="-1.00" shape="12446.381495,14610.112030 12495.703244,14610.766804 12495.886202,14596.802597 12446.572834,14596.136672 12446.381495,14610.112030"/>
    <poly id="297316983" type="building" color="255,230,230" fill="1" layer="-1.00" shape="12496.399028,14564.799817 12496.485684,14550.425494 12567.857499,14550.840795 12567.829958,14556.357392 12618.686634,14556.659920 12618.596704,14570.512583 12563.155657,14570.192434 12563.186241,14565.197494 12496.399028,14564.799817"/>
    <poly id="297316984" type="building" color="255,230,230" fill="1" layer="-1.00" shape="12500.108979,14713.044884 12500.064502,14696.684518 12572.951016,14696.502715 12572.995336,14712.863080 12500.108979,14713.044884"/>
    <poly id="297316985" type="building" color="255,230,230" fill="1" layer="-1.00" shape="12572.998272,14675.357944 12572.993091,14659.852011 12621.388658,14659.847035 12621.393806,14675.364066 12572.998272,14675.357944"/>
    <poly id="297317467" type="building" color="255,230,230" fill="1" layer="-1.00" shape="12476.336527,14423.199150 12490.892816,14424.734503 12488.124834,14450.667959 12473.568528,14449.121513 12476.336527,14423.199150"/>
    <poly id="297317468" type="building" color="255,230,230" fill="1" layer="-1.00" shape="12485.709601,14455.177376 12484.061150,14471.092562 12612.382057,14484.228267 12614.022300,14468.324259 12485.709601,14455.177376"/>