<?xml version="1.0" encoding="UTF-8"?>

<!-- generated on 09/01/20 22:33:47 by Eclipse SUMO duarouter Version 1.6.0
<configuration xmlns:xsi="http://www.w3.org/2001/XMLSchema-instance" xsi:noNamespaceSchemaLocation="http://sumo.dlr.de/xsd/duarouterConfiguration.xsd">

    <input>
        <net-file value="map.net.xml"/>
        <route-files value="trips.trips.xml"/>
    </input>

    <output>
        <output-file value="map.rou.xml"/>
        <alternatives-output value="map.rou.alt.xml"/>
    </output>

    <time>
        <begin value="0"/>
        <end value="400.0"/>
    </time>

    <report>
        <no-warnings value="true"/>
        <ignore-errors value="true"/>
        <no-step-log value="true"/>
    </report>

</configuration>
-->

<routes xmlns:xsi="http://www.w3.org/2001/XMLSchema-instance" xsi:noNamespaceSchemaLocation="http://sumo.dlr.de/xsd/routes_file.xsd">
    <vehicle id="0" depart="0.00">
        <route edges="161701303#3 161701303#4 823732386#2 823732386#3 823732386#4 823732386#5 823732386#6 823732386#7 823732386#8 823732386#9 199827587#0 199827587#1 199829833#0 54581238#0"/>
    </vehicle>
    <vehicle id="1" depart="1.00">
        <route edges="-54581238#1 54581238#1 54581238#2 199827592#1 170261286#0 199827589 199827591#0 199827591#1 199827591#2 199827591#3 199827591#4 29257863#5 29257863#6 29257863#7"/>
    </vehicle>
    <vehicle id="2" depart="2.00">
        <route edges="199827587#2 199827587#3 170258830#0 170258830#1 170258832#0 170258832#1 170258832#2 -297832767#1 -541459602 -541459596#7 -541459596#6 -541459596#5 -541459596#4"/>
    </vehicle>
    <vehicle id="3" depart="3.00">
        <route edges="-171860080#0 161685598#1 534224181#0 72631490#2 171731747#0 171731747#1 171731747#2 171731747#3 171731747#4"/>
    </vehicle>
    <vehicle id="4" depart="4.00">
        <route edges="171860081#0 171860081#1 171860081#2 161685581#1 161701303#3 199827591#6 171860081#4 171860081#5 171860081#6"/>
    </vehicle>
    <vehicle id="5" depart="5.00">
        <route edges="170258833#1 170258833#2 170258833#3 297832767#0 297832767#1 170258832#3"/>
    </vehicle>
    <vehicle id="6" depart="6.00">
        <route edges="173019246#4 -173019246#4 -173019246#3 -173019246#2 -173019246#1 -297832767#4 -297832767#3 -171731752#1 -171732990 -171732992 171732992 -171732991"/>
    </vehicle>
    <vehicle id="7" depart="7.00">
        <route edges="-171867663 -171860080#0 -244010348#1 -244010348#0 171860084#0 244010339 29257863#1 29257863#2 29257863#3 29257863#4 29257863#5 161685581#3 161685581#4 161685581#5 224835309#0 224835310#1 -224838020#1 224838020#1"/>
    </vehicle>
    <vehicle id="8" depart="8.00">
        <route edges="154117671#1 154117671#2 -823732387#2 173019252#0 173019252#1 173019252#2 173019252#3 173019252#4 161701303#7 161701303#8 161701303#9 72631490#0 72631490#1 534224181#1 534224181#2 171861192#2 -171861192#2"/>
    </vehicle>
    <vehicle id="9" depart="9.00">
        <route edges="-297832767#6 -297832767#5 -297832767#4 -297832767#3 -171731752#1 -171732990 -171732992 171732992 -171732991"/>
    </vehicle>
    <vehicle id="10" depart="10.00">
        <route edges="823732386#0 823732386#1 823732386#2 29257863#4 29257863#5 29257863#6 199827588#3 161701303#2 161701303#3"/>
    </vehicle>
    <vehicle id="11" depart="11.00">
        <route edges="173019252#7 31557649#3 -161685598#1 -244010348#1 -244010348#0 171860084#0"/>
    </vehicle>
    <vehicle id="12" depart="12.00">
        <route edges="534224179#0 -297832767#5 -297832767#4 -297832767#3 -297832767#2 170258832#3 170258832#4 171731750#0 171731750#1 171731750#2 -171861192#3"/>
    </vehicle>
    <vehicle id="13" depart="13.00">
        <route edges="-173019252#9 -173019252#8 173019252#8"/>
    </vehicle>
    <vehicle id="14" depart="14.00">
        <route edges="170258806#0 170258806#1 170258806#2 170258806#3 170258806#4 170258801#0 170258808 170258830#0 170258830#1 170258832#0 170258832#1 170258832#2 170258832#3 171731752#0 171731752#1"/>
    </vehicle>
    <vehicle id="15" depart="15.00">
        <route edges="24790441#2 173019252#2 173019252#3 173019252#4 173019252#5 173019252#6 173019252#7 173019252#8 -297832767#6 -297832767#5 -297832767#4 -297832767#3 -297832767#2 -297832767#1 -297832767#0 -16266662#1 -35028013#1 35028013#1"/>
    </vehicle>
    <vehicle id="16" depart="16.00">
        <route edges="29257863#5 29257863#6 199827588#3 161701303#2 161701303#3 161701303#4 823732386#2 823732386#3 823732386#4 823732386#5 823732386#6 823732386#7 -297832767#8 -297832767#7 173019252#9"/>
    </vehicle>
    <vehicle id="17" depart="17.00">
        <route edges="-541459597#5 541459598#0 541459598#1 -541459596#8 541459602 297832767#1 297832767#2 297832767#3 297832767#4 297832767#5 297832767#6 297832767#7 54581238#5 84718463#0 84718463#1 84718463#2 84718463#3 84718463#4 84718463#5 -84718463#5"/>
    </vehicle>
    <vehicle id="18" depart="18.00">
        <route edges="54581238#0 54581238#1 54581238#2 -54581238#2"/>
    </vehicle>
    <vehicle id="19" depart="19.00">
        <route edges="-534224179#3 -534224179#2 -534224179#1 -534224179#0 -161685598#1 -244010348#1 -244010348#0 171860084#0 244010339 29257863#1 -173019252#5 161701303#7 -447977222#1 -458019740"/>
    </vehicle>
    <vehicle id="20" depart="20.00">
        <route edges="199827587#6 170258833#0 170258833#1 170258833#2 170258833#3 297832767#0 297832767#1 170258832#3 170258832#4 171731750#0 171731747#3"/>
    </vehicle>
    <vehicle id="21" depart="21.00">
        <route edges="-173046311#1 173046311#1 173046311#2 170258801#11 199827589 170261285#7 199827587#0 199827587#1 199827587#2 199827587#3 199827587#4 170258810 170258801#0 170258801#1 170258801#2 -170534219#1 -170534219#0 -170534220#0"/>
    </vehicle>
    <vehicle id="22" depart="22.00">
        <route edges="170258832#0 170258832#1 170258832#2 297832767#2 297832767#3 297832767#4 -173019246#0 -72631490#2"/>
    </vehicle>
    <vehicle id="23" depart="23.00">
        <route edges="173019253 174694170#2 -173019256#1 -173019256#0 534224179#4 534224179#5 -199829833#2 -199829833#1 -199829833#0 199829833#0 199829833#1"/>
    </vehicle>
    <vehicle id="24" depart="24.00">
        <route edges="171731747#4 -171731747#4 -171731747#3 -171731747#2 -171731747#1 -171731747#0 -72631490#2 -72631490#1 -72631490#0 154117671#0 154117671#1 154117671#2 -823732387#2 823732387#2"/>
    </vehicle>
    <vehicle id="25" depart="25.00">
        <route edges="-229731894 229731892#1 107948695#4 84718463#5 161685581#5 224835309#0 224835310#1 -224838020#1 -224838020#0"/>
    </vehicle>
    <vehicle id="26" depart="26.00">
        <route edges="-171861190#0 171861190#0 -534224181#1 72631490#2 173019246#0 -297832767#4 -297832767#3 -297832767#2 -297832767#1 -297832767#0 297832767#0"/>
    </vehicle>
    <vehicle id="27" depart="27.00">
        <route edges="564589320#1 -564589320#1 -564589320#0 -170258832#1 -170258832#0 170258831#0 687360883 687360884#0 687360884#1 -199829833#4 -199829833#3 -534224179#5 -534224179#4 -173019244#3"/>
    </vehicle>
    <vehicle id="29" depart="29.00">
        <route edges="199827591#1 199827591#2 199827591#3 199827591#4 199827591#5 161701303#4 823732386#2 823732386#3 823732386#4 823732386#5 823732386#6 823732386#7 823732386#8 823732386#9 -199827592#1 -199827592#0 -173019246#5 173019245#0 -173094011 173094011"/>
    </vehicle>
    <vehicle id="30" depart="30.00">
        <route edges="277744186#1 -171731747#3 -171731747#2 -171731747#1 -171731747#0 -72631490#2 -72631490#1 -72631490#0 29257863#0 29257863#1 29257863#2 29257863#3 29257863#4 29257863#5 29257863#6 199827588#3 161701303#2 161701303#3"/>
    </vehicle>
    <vehicle id="31" depart="31.00">
        <route edges="-121671233#0 170258801#9 170258801#10 170258801#11 199827589 199827591#0 199827591#1 199827591#2 199827591#3 199827591#4 199827591#5 199827591#6 171860081#4 171860081#5 171860081#6"/>
    </vehicle>
    <vehicle id="32" depart="32.00">
        <route edges="-170534219#0 170534219#0 170534219#1 170258801#3 170258801#4 170258801#5 169620645#7 199829833#0 199829833#1 199829833#2 -534224179#5 -534224179#4 -534224179#3 -534224179#2 -534224179#1 -534224179#0 534224181#0 72631490#2"/>
    </vehicle>
    <vehicle id="33" depart="33.00">
        <route edges="221267221#2 171861192#3 -171731750#2 -171731750#1 -171731750#0 -170258832#4 -170258832#3 -170258832#2 -170258832#1 -170258832#0 170258831#0 687360883 687360884#0 687360884#1 -199829833#4 -199829833#3 -199829833#2 -199829833#1 -199829833#0 33869095#0 33869095#1 33869095#2 178733942#0 178733942#1"/>
    </vehicle>
    <vehicle id="34" depart="34.00">
        <route edges="170258801#7 -179790904#2 -179790904#1 -179790904#0 169620645#5 169620645#6 169620645#7 199829833#0 199829833#1 199829833#2 199829833#3 199829833#4 199829833#5 199829833#6 -32920678#2 -32920678#1 -32920678#0 170258833#2 -170258833#2"/>
    </vehicle>
    <vehicle id="35" depart="35.00">
        <route edges="-823732387#2 173019252#0 173019252#1 173019252#2 173019252#3 173019252#4 161701303#7 161701303#8 161701303#9 161685598#0 161685598#1 534224181#0"/>
    </vehicle>
    <vehicle id="36" depart="36.00">
        <route edges="541459597#4 541459598#0 541459598#1 -541459596#8 541459602 297832767#1 297832767#2 297832767#3 297832767#4 297832767#5 -534224179#0 -161685598#1 -244010348#1 -244010348#0 171860084#0 244010339 29257863#1 29257863#2 29257863#3 823732386#3 171860084#5 171860084#6"/>
    </vehicle>
    <vehicle id="37" depart="37.00">
        <route edges="-171862381#0 171862381#0 171862381#1 -199829833#1 -199829833#0 199827587#2 199827587#3 199827587#4 170258810 170258801#0 170258801#1 170258801#2 -170534219#1 170534218"/>
    </vehicle>
    <vehicle id="38" depart="38.00">
        <route edges="534224181#0 72631490#2 173019246#0 -297832767#4 -297832767#3 -297832767#2 -170258832#2 -170258832#1 -170258832#0 -199829833#6 -199829833#5"/>
    </vehicle>
    <vehicle id="39" depart="39.00">
        <route edges="-564589322#3 564589322#3 -564589321#1 -564589321#0 -564589320#2 -564589320#1 -564589320#0 -170258832#1 -170258832#0 170258831#0 687360883 687360884#0 687360884#1 -199829833#4 -199829833#3 -199829833#2 -199829833#1 -199829833#0 33869095#0 170258801#5 170258801#6 170258801#7 170258801#8 170258801#9 170258801#10"/>
    </vehicle>
    <vehicle id="40" depart="40.00">
        <route edges="-447977221 447977222#0 447977222#1 161701303#8 161701303#9 161685598#0 161685598#1 534224179#0 -297832767#5 -297832767#4 -297832767#3 -297832767#2 -297832767#1 -541459602 -541459596#7 541459610 -541459597#3 541459599 -541459596#1"/>
    </vehicle>
    <vehicle id="41" depart="41.00">
        <route edges="161701303#7 161701303#8 161701303#9 161685598#0 161685598#1 534224179#0 -297832767#5 -297832767#4 -297832767#3 -297832767#2 -297832767#1 -297832767#0 -16266662#1 -16266662#0"/>
    </vehicle>
    <vehicle id="42" depart="42.00">
        <route edges="-179790904#1 -179790904#0 169620645#5 169620645#6 170258801#6 170258801#7 170258801#8 170258801#9 170258801#10 170258801#11 199827589 199827591#0 199827591#1 199827591#2 199827591#3 199827591#4 29257863#5 29257863#6 199827588#3 199827588#4 171860081#2 171860081#3"/>
    </vehicle>
    <vehicle id="43" depart="43.00">
        <route edges="54581238#2 199827592#1 199827587#0 199827587#1 33869095#0 170258801#5 170258801#6 170258801#7 -179790904#2 -179790904#1 -179790904#0 169620645#5"/>
    </vehicle>
    <vehicle id="44" depart="44.00">
        <route edges="170258833#3 297832767#0 297832767#1 297832767#2 297832767#3 297832767#4 297832767#5 -534224179#0 -161685598#1 -244010348#1 -244010348#0 171860084#0 244010339 29257863#1 29257863#2 -54581238#9 -54581238#8"/>
    </vehicle>
    <vehicle id="45" depart="45.00">
        <route edges="171860084#2 171860084#3 171860084#4 823732386#4 823732386#5 823732386#6 823732386#7 823732386#8 823732386#9 199827587#0 199827587#1 199827587#2 199827587#3 199827587#4 170258810 170258801#0 170258801#1 170258801#2 -170534219#1 -170534219#0 170534220#1 170534216#1 170534216#2 170534220#0"/>
    </vehicle>
    <vehicle id="46" depart="46.00">
        <route edges="-297832767#6 -534224179#0 -161685598#1 -244010348#1 -244010348#0 171860084#0 244010339 29257863#1 -173019252#5 -173019252#4 -173019252#3 -173019252#2 -173019252#1 -173019252#0"/>
    </vehicle>
    <vehicle id="47" depart="47.00">
        <route edges="173019252#0 173019252#1 173019252#2 173019252#3 173019252#4 173019252#5 173019252#6 173019252#7 173019252#8 173019252#9 -173019246#4 173019406#0"/>
    </vehicle>
    <vehicle id="48" depart="48.00">
        <route edges="171861191 171861192#0 171861192#1 171861192#2 171861192#3 -171731750#2 -171731750#1 -171731750#0 -170258832#4 -170258832#3 -297832767#1 -297832767#0 -16266662#1 -35028013#1 -35028013#0"/>
    </vehicle>
    <vehicle id="49" depart="49.00">
        <route edges="173019246#1 173019246#2 173019246#3 173019246#4 173019246#5 199827592#0 199827592#1 170261286#0 170261286#1 170261286#2 170261286#3 170261286#4 244010342 161685582 170261285#2 170261285#3 224835310#0 224835310#1 -224838020#1 -224838020#0"/>
    </vehicle>
    <vehicle id="51" depart="51.00">
        <route edges="173094012#2 -173094013#0 171862381#1 -199829833#1 -199829833#0 33869095#0 170258801#5 170258801#6 170258801#7 170258801#8 170258801#9 170258801#10 170258801#11 199827589 199827591#0 84718463#2 84718463#3 84718463#4"/>
    </vehicle>
    <vehicle id="52" depart="52.00">
        <route edges="170258833#1 32920678#0 32920678#1 32920678#2 -199829833#6 -199829833#5 -199829833#4 -199829833#3 -534224179#5 -534224179#4 -534224179#3 -534224179#2 -534224179#1 -534224179#0 -161685598#1 -244010348#1 -244010348#0 171860084#0 244010339 29257863#1 -173019252#5 161701303#7 161701303#8 244010340 171860081#9 244010345#0 244010345#1"/>
    </vehicle>
    <vehicle id="53" depart="53.00">
        <route edges="173019259#1 -534224179#1 -297832767#5 -297832767#4 -297832767#3 -297832767#2 -297832767#1 -297832767#0 -16266662#1 -35028013#1 -35028013#0"/>
    </vehicle>
    <vehicle id="54" depart="54.00">
        <route edges="173019252#9 173019246#5 199827592#0 199827592#1 199827587#0 199827587#1 199829833#0 199829833#1 -199829833#1"/>
    </vehicle>
    <vehicle id="55" depart="55.00">
        <route edges="-84718463#7 199827588#1 199827588#2 199827588#3 161701303#2 161701303#3 161701303#4 161701303#5 161701303#6 -173019252#4 171860081#7"/>
    </vehicle>
    <vehicle id="56" depart="56.00">
        <route edges="-72631490#1 -72631490#0 29257863#0 29257863#1 29257863#2 29257863#3 29257863#4 29257863#5 29257863#6 199827588#3 199827588#4 199827588#5"/>
    </vehicle>
    <vehicle id="57" depart="57.00">
        <route edges="-297832767#7 -297832767#6 -534224179#0 -161685598#1 -161685598#0 154117671#0 154117671#1 154117671#2 154117671#3 161685587"/>
    </vehicle>
    <vehicle id="58" depart="58.00">
        <route edges="54581238#5 84718463#0 823732386#7 -297832767#8 -297832767#7 -297832767#6 -297832767#5"/>
    </vehicle>
    <vehicle id="59" depart="59.00">
        <route edges="-224838020#0 -414197228 414197227 170261285#5 170261285#6 170261285#7 -199827592#1 -199827592#0 -173019246#5 -173019246#4 -173019246#3 -173019246#2 -173019246#1 -173019246#0 171731747#0 171731747#1 171731747#2 171731747#3 171731747#4 -277744185#0 277744185#0"/>
    </vehicle>
    <vehicle id="60" depart="60.00">
        <route edges="32920678#0 32920678#1 32920678#2 -199829833#6 -199829833#5 -199829833#4 -199829833#3 -534224179#5 -534224179#4 -534224179#3 173019246#3 173019246#4"/>
    </vehicle>
    <vehicle id="61" depart="61.00">
        <route edges="-199829833#4 199829833#4 199829833#5 199829833#6 170258832#0 170258832#1 170258832#2 -297832767#1 -297832767#0 -16266662#1 -35028013#1"/>
    </vehicle>
    <vehicle id="62" depart="62.00">
        <route edges="23892336#2 173046311#0 173046311#1 173046311#2 170258801#11 199827589 170261285#7 -199827592#1 -199827592#0 -173019246#5 -173019246#4 -173019246#3 -173019246#2 -173019246#1 -297832767#4 -297832767#3 -297832767#2 -297832767#1 -297832767#0 -16266662#1 35028013#2"/>
    </vehicle>
    <vehicle id="63" depart="63.00">
        <route edges="541459598#1 -541459596#8 541459602 -297832767#0 -170258833#3 170258833#3"/>
    </vehicle>
    <vehicle id="64" depart="64.00">
        <route edges="171860081#0 171860081#1 171860081#2 161685581#1 161701303#3 161701303#4 161701303#5 161701303#6 161701303#7 161701303#8 161701303#9 72631490#0 72631490#1 534224181#1 534224181#2 171861192#2 -221267221#2"/>
    </vehicle>
    <vehicle id="65" depart="65.00">
        <route edges="-171861192#1 -171861192#0 -171861191 161685595#1 161685595#2 29257863#0 29257863#1 29257863#2 29257863#3 29257863#4 29257863#5 29257863#6 29257863#7"/>
    </vehicle>
    <vehicle id="66" depart="66.00">
        <route edges="-173094011 173094012#2 -173094013#0 -171862381#0"/>
    </vehicle>
    <vehicle id="67" depart="67.00">
        <route edges="-54581238#3 199827592#1 170261286#0 199827589 199827591#0 199827591#1 199827591#2 199827591#3 199827591#4 199827591#5 161701303#4 161701303#5 161701303#6 161701303#7 161701303#8 244010340 171860081#9 171867665 171860093#2 171860093#3 171860093#4 171860083 171860086#2 221268082#0 171861190#0"/>
    </vehicle>
    <vehicle id="68" depart="68.00">
        <route edges="-823732387#2 173019252#0 173019252#1 173019252#2 173019252#3 173019252#4 161701303#7 161701303#8 161701303#9 72631490#0 72631490#1 72631490#2 171731747#0 171861194#0 171861194#1 171861194#2 -338078744#1"/>
    </vehicle>
    <vehicle id="69" depart="69.00">
        <route edges="161685581#0 161685581#1 161701303#3 161701303#4 161701303#5 161701303#6 161701303#7 161701303#8 161701303#9 72631490#0 72631490#1 534224181#1 534224181#2 -171861192#1 -171861192#0 -171861191"/>
    </vehicle>
    <vehicle id="70" depart="70.00">
        <route edges="-823732387#1 -823732387#0 823732386#0 823732386#1 161701303#5 161701303#6 161701303#7 161701303#8 161701303#9 72631490#0 72631490#1 72631490#2 171731747#0 171861194#0 171861194#1 171861194#2 -338078744#1"/>
    </vehicle>
    <vehicle id="71" depart="71.00">
        <route edges="-35028013#1 35028013#1 16266662#1 297832767#0 297832767#1 297832767#2 297832767#3 297832767#4 173019246#1 173019246#2 173019246#3 173019246#4 173019246#5 199827592#0 199827592#1 170261286#0 199827589 199827591#0 199827591#1 199827591#2 230687301#0 230687301#1 -230687301#1"/>
    </vehicle>
    <vehicle id="72" depart="72.00">
        <route edges="-54581238#12 -54581238#11 161701303#6 161701303#7 161701303#8 161701303#9 72631490#0 -171860080#2"/>
    </vehicle>
    <vehicle id="73" depart="73.00">
        <route edges="-541459598#0 541459598#0 541459598#1 -541459596#8 541459602 297832767#1 297832767#2 297832767#3 297832767#4 297832767#5 -534224179#0 -161685598#1 -244010348#1 171867666 171860093#0 171860093#1 171860093#2 171860093#3 171860093#4 171860083"/>
    </vehicle>
    <vehicle id="75" depart="75.00">
        <route edges="-541459596#4 541459597#0 541459597#1 541459597#2 541459597#3 -541459610 541459596#7 541459602 297832767#1 -170258832#2 -170258832#1 -170258832#0 170258831#0 687360883 687360884#0 687360884#1 -199829833#4 -199829833#3 -199829833#2 -199829833#1 -199829833#0 33869095#0 170258801#5 170258801#6 170258801#7 170258801#8 170258801#9 170258801#10 -173046311#2 -173046311#1 -173046311#0 -23892336#2 -23892336#1"/>
    </vehicle>
    <vehicle id="77" depart="77.00">
        <route edges="29257863#0 29257863#1 29257863#2 29257863#3 823732386#3 823732386#4 823732386#5 823732386#6 823732386#7 823732386#8 823732386#9 199827587#0 199827587#1 33869095#0 170258801#5 170258801#6 170258801#7 170258801#8 170258801#9 170258801#10 -173046311#2 -173046311#1 -173046311#0"/>
    </vehicle>
    <vehicle id="78" depart="78.00">
        <route edges="173019246#0 -297832767#4 -297832767#3 -297832767#2 -170258832#2 564589320#0 564589320#1 564589320#2 564589321#0 564589321#1 564589322#0 564589322#1 -564589322#1"/>
    </vehicle>
    <vehicle id="79" depart="79.00">
        <route edges="170258806#2 170258806#3 170258806#4 170258801#0 170258801#1 170258801#2 170258801#3 170258801#4 170258801#5 170258801#6 170258801#7 170258801#8 170258801#9 170258801#10 170258801#11 199827589 199827591#0 199827591#1 199827591#2 199827591#3 199827591#4 29257863#5 29257863#6 29257863#7 29257863#8"/>
    </vehicle>
    <vehicle id="80" depart="80.00">
        <route edges="170258832#0 170258832#1 170258832#2 297832767#2 297832767#3 297832767#4 173019246#1 173019246#2 173019246#3 173019246#4"/>
    </vehicle>
    <vehicle id="81" depart="81.00">
        <route edges="31557649#3 -31557649#3 -31557649#2 -31557649#1 -31557649#0 823732386#6 84718463#1 84718463#2 84718463#3 107948695#0 107948695#1 107948695#2 107948695#3 107948695#4"/>
    </vehicle>
    <vehicle id="82" depart="82.00">
        <route edges="-170258833#1 -121304145#1 -121304145#0 170258831#2 170258810 170258801#0 170258801#1 170258801#2 170258801#3 170258801#4 170258801#5 170258801#6 170258801#7 170258801#8 170258801#9 170258801#10 170258801#11 199827589 199827591#0 199827591#1 199827591#2 199827591#3"/>
    </vehicle>
    <vehicle id="83" depart="83.00">
        <route edges="221267221#3 -221267221#3 171861192#3 -171731750#2 -171731750#1 -171731750#0 -170258832#4 -170258832#3 -170258832#2 -170258832#1 -170258832#0 170258831#0 170258831#1 170258831#2 170258810 170258801#0 170258808 170258830#0"/>
    </vehicle>
    <vehicle id="84" depart="84.00">
        <route edges="173019250#1 173019246#2 173019246#3 173019246#4 173019245#0 -173094011"/>
    </vehicle>
    <vehicle id="86" depart="86.00">
        <route edges="-173019245#0 173019246#5 199827592#0 199827592#1 170261286#0 199827589 199827591#0 199827591#1 199827591#2 199827591#3"/>
    </vehicle>
    <vehicle id="87" depart="87.00">
        <route edges="244010340 171860081#9 171867665 171860093#2 171860093#3 171860093#4 171860093#5 171860093#6 -171867663 -171860080#0 161685598#1 534224179#0 -297832767#5 -297832767#4 -297832767#3 -297832767#2 -170258832#2 564589320#0 564589320#1 564589320#2 564589321#0 564589321#1 -564589322#3"/>
    </vehicle>
    <vehicle id="89" depart="89.00">
        <route edges="170258832#3 -170258832#3 -170258832#2 -170258832#1 -170258832#0 170258831#0 170258831#1"/>
    </vehicle>
    <vehicle id="90" depart="90.00">
        <route edges="171860084#6 171860084#7 199827588#2 199827588#3 161701303#2 161701303#3 161701303#4 823732386#2 823732386#3 823732386#4 823732386#5 823732386#6 823732386#7 823732386#8 823732386#9 199827587#0 199827587#1 33869095#0 170258801#5 170258801#6 170258801#7 170258801#8 121671233#0 121671233#1 -121671233#1"/>
    </vehicle>
    <vehicle id="91" depart="91.00">
        <route edges="29257863#2 29257863#3 823732386#3 823732386#4 823732386#5 823732386#6 823732386#7 823732386#8 823732386#9 199827587#0 199827587#1 199829833#0 199829833#1 199829833#2 199829833#3 199829833#4 199829833#5 199829833#6 -32920678#2 -32920678#1"/>
    </vehicle>
    <vehicle id="92" depart="92.00">
        <route edges="-161685598#0 29257863#0 29257863#1 29257863#2 29257863#3 823732386#3 823732386#4 823732386#5 823732386#6 823732386#7 823732386#8 823732386#9 199827587#0 199827587#1 33869095#0 170258801#5 170258801#6 170258801#7 -179790904#2 -179790904#1 -179790904#0 179790904#0 179790904#1"/>
    </vehicle>
    <vehicle id="93" depart="93.00">
        <route edges="-241410644#5 241410644#5 241410644#6 -534224179#4 -534224179#3 173019246#3 173019246#4 173019246#5 199827592#0 199827592#1 170261286#0 170261286#1 170261286#2 -173046309"/>
    </vehicle>
    <vehicle id="94" depart="94.00">
        <route edges="199827587#0 199827587#1 33869095#0 170258801#5 170258801#6 170258801#7 170258801#8 170258801#9 170258801#10 170258801#11 199827589 199827591#0 199827591#1 199827591#2 230687301#0 -230687301#0"/>
    </vehicle>
    <vehicle id="95" depart="95.00">
        <route edges="474563700 221267221#1 221267221#2 -171861192#2 -534224181#2 -534224181#1 -72631490#1 -72631490#0 29257863#0 29257863#1 -173019252#5 -173019252#4 171860081#7"/>
    </vehicle>
    <vehicle id="97" depart="97.00">
        <route edges="-173046309 173046309 170261286#3 170261286#4 244010342 161685582 199827588#0 -84718463#6 -84718463#5 -107948695#4"/>
    </vehicle>
    <vehicle id="98" depart="98.00">
        <route edges="31557649#3 -161685598#1 -244010348#1 -244010348#0 171860084#0 244010339 29257863#1 29257863#2 29257863#3 29257863#4 29257863#5 29257863#6 199827588#3 199827588#4 199827588#5"/>
    </vehicle>
    <vehicle id="99" depart="99.00">
        <route edges="564589327 564589329#0 -564618084 32920678#1 32920678#2 -199829833#6 -199829833#5 -199829833#4 -199829833#3 -199829833#2 -199829833#1 -199829833#0 33869095#0 170258801#5 170258801#6 170258801#7 170258801#8 170258801#9 170258801#10 170258801#11 170261286#1 170261286#2"/>
    </vehicle>
    <vehicle id="100" depart="100.00">
        <route edges="474563700 221267221#1 221267221#2 171861192#3 -171731750#2 -171731750#1 -171731750#0 -170258832#4 -170258832#3 -297832767#1 -541459602 -541459596#7 -541459596#6 -541459596#5 -541459596#4 -541459596#3"/>
    </vehicle>
    <vehicle id="101" depart="101.00">
        <route edges="-534224179#5 -534224179#4 -534224179#3 -173019246#2 -173019246#1 -173019246#0 171731747#0 171731747#1 171731747#2 171731747#3 -277744186#1"/>
    </vehicle>
    <vehicle id="102" depart="102.00">
        <route edges="-534224181#2 -534224181#1 -534224181#0 534224179#0 -534224179#0"/>
    </vehicle>
    <vehicle id="103" depart="103.00">
        <route edges="54581238#5 84718463#0 823732386#7 823732386#8 823732386#9 -199827592#1 -199827592#0 -173019246#5 173019245#0 -173094011 173094012#2"/>
    </vehicle>
    <vehicle id="104" depart="104.00">
        <route edges="170258801#3 170258801#4 170258801#5 169620645#7 199827587#2 199827587#3 170258830#0"/>
    </vehicle>
    <vehicle id="105" depart="105.00">
        <route edges="171731747#1 -171731747#1 -171731747#0 -72631490#2 -72631490#1 -72631490#0 29257863#0 29257863#1 -173019252#5 -173019252#4 -173019252#3 -173019252#2 -173019252#1 171977864"/>
    </vehicle>
    <vehicle id="106" depart="106.00">
        <route edges="173019244#3 534224179#4 534224179#5 199829833#3 199829833#4 199829833#5 199829833#6 -32920678#2 -32920678#1 -32920678#0 170258833#2 -170258833#2"/>
    </vehicle>
    <vehicle id="107" depart="107.00">
        <route edges="161685598#0 161685598#1 534224179#0 -297832767#5 -297832767#4 -297832767#3 -297832767#2 -170258832#2 -170258832#1 -170258832#0"/>
    </vehicle>
    <vehicle id="108" depart="108.00">
        <route edges="-171731750#2 171731750#2 -171861192#3 -171861192#2 -534224181#2 -534224181#1 -534224181#0 -31557649#3 31557649#3"/>
    </vehicle>
    <vehicle id="109" depart="109.00">
        <route edges="107948695#4 -84718463#4 -84718463#3 -84718463#2 -84718463#1 823732386#7 823732386#8 823732386#9 -199827592#1 -199827592#0 -173019246#5 -173019246#4 -173019246#3 534224179#3 534224179#4 -241410644#6 -241410644#5 241410645#0 241410645#1"/>
    </vehicle>
    <vehicle id="110" depart="110.00">
        <route edges="-230687300#3 230687300#3 199827591#2 199827591#3 199827591#4 199827591#5 161701303#4 823732386#2 823732386#3 823732386#4 823732386#5 823732386#6 84718463#1 84718463#2 84718463#3 107948695#0 107948695#1 107948695#2"/>
    </vehicle>
    <vehicle id="111" depart="111.00">
        <route edges="31557649#3 534224179#0 534224179#1 534224179#2 534224179#3 534224179#4 -241410644#6 241567240#0 -241567240#0"/>
    </vehicle>
    <vehicle id="112" depart="112.00">
        <route edges="541459596#3 541459596#4 541459596#5 541459596#6 541459596#7 541459602 297832767#1 170258832#3 170258832#4 171731750#0 171731750#1 171731750#2 -171861192#3 -171861192#2 -171861192#1 -171861192#0 -171861191 161685595#1"/>
    </vehicle>
    <vehicle id="113" depart="113.00">
        <route edges="170261285#0 170261285#1 170261285#2 170261285#3 170261285#4 170261285#5 170261285#6 170261285#7 -199827592#1 -199827592#0 -173019246#5 -173019246#4 -173019246#3 -173019246#2 -173019246#1 -297832767#4 -297832767#3 -297832767#2 -297832767#1 -541459602 -541459596#7 541459610"/>
    </vehicle>
    <vehicle id="114" depart="114.00">
        <route edges="170258801#3 170258801#4 170258801#5 170258801#6 170258801#7 170258801#8 170258801#9 170258801#10 170258801#11 199827589 199827591#0 199827591#1 199827591#2 199827591#3 199827591#4 199827591#5 161701303#4 161701303#5 161701303#6 161701303#7 161701303#8 161701303#9 154117671#0 154117671#1 154117671#2"/>
    </vehicle>
    <vehicle id="116" depart="116.00">
        <route edges="-173019246#4 173019246#4 173019246#5 199827592#0 199827592#1 199827587#0 199827587#1 33869095#0 33869095#1 33869095#2 33869095#3 33869095#4 33869095#5 33869095#6 33869095#7 33869095#8"/>
    </vehicle>
    <vehicle id="117" depart="117.00">
        <route edges="199827587#2 199827587#3 199827587#4 170258810 170258801#0 170258801#1 170258801#2 170258801#3 170258801#4 170258801#5 170258801#6 170258801#7 170258801#8 170258801#9 170258801#10 170258801#11 199827589 199827591#0 199827591#1 199827591#2 199827591#3 199827591#4 29257863#5 161685581#3 171860084#7 171860084#8"/>
    </vehicle>
    <vehicle id="118" depart="118.00">
        <route edges="-84718463#3 -84718463#2 -84718463#1 823732386#7 823732386#8 823732386#9 199827587#0 199827587#1 33869095#0 170258801#5 170258801#6 170258801#7 170258801#8 170258801#9 170258801#10 -173046311#2 -173046311#1 -173046311#0 23892336#3"/>
    </vehicle>
    <vehicle id="119" depart="119.00">