<?xml version="1.0" encoding="UTF-8"?>

<!-- generated on Tue Apr 28 00:06:20 2020 by Eclipse SUMO Version 1.6.0
This data file and the accompanying materials
are made available under the terms of the Eclipse Public License v2.0
which accompanies this distribution, and is available at
http://www.eclipse.org/legal/epl-v20.html
SPDX-License-Identifier: EPL-2.0
-->

<configuration xmlns:xsi="http://www.w3.org/2001/XMLSchema-instance" xsi:noNamespaceSchemaLocation="http://sumo.dlr.de/xsd/sumoConfiguration.xsd">

    <input>
        <net-file value="map.net.xml"/>
        <route-files value="map.rou.xml"/>
		<additional-files value="map.poly.xml"/>
    </input>
    <time>
        <begin value="0"/>
        <end value="10000"/>
    </time>
    
</configuration>
