<?xml version="1.0" encoding="UTF-8"?>
<!-- generated on 2020-09-01 22:33:46.735000 by randomTrips.py v1_6_0+0003-190709904e
  options: -n map.net.xml -r map.rou.xml -e 400 -l
-->
<routes xmlns:xsi="http://www.w3.org/2001/XMLSchema-instance" xsi:noNamespaceSchemaLocation="http://sumo.dlr.de/xsd/routes_file.xsd">
    <trip id="0" depart="0.00" from="161701303#3" to="54581238#0"/>
    <trip id="1" depart="1.00" from="-54581238#1" to="29257863#7"/>
    <trip id="2" depart="2.00" from="199827587#2" to="-541459596#4"/>
    <trip id="3" depart="3.00" from="-171860080#0" to="171731747#4"/>
    <trip id="4" depart="4.00" from="171860081#0" to="171860081#6"/>
    <trip id="5" depart="5.00" from="170258833#1" to="170258832#3"/>
    <trip id="6" depart="6.00" from="173019246#4" to="-171732991"/>
    <trip id="7" depart="7.00" from="-171867663" to="224838020#1"/>
    <trip id="8" depart="8.00" from="154117671#1" to="-171861192#2"/>
    <trip id="9" depart="9.00" from="-297832767#6" to="-171732991"/>
    <trip id="10" depart="10.00" from="823732386#0" to="161701303#3"/>
    <trip id="11" depart="11.00" from="173019252#7" to="171860084#0"/>
    <trip id="12" depart="12.00" from="534224179#0" to="-171861192#3"/>
    <trip id="13" depart="13.00" from="-173019252#9" to="173019252#8"/>
    <trip id="14" depart="14.00" from="170258806#0" to="171731752#1"/>
    <trip id="15" depart="15.00" from="24790441#2" to="35028013#1"/>
    <trip id="16" depart="16.00" from="29257863#5" to="173019252#9"/>
    <trip id="17" depart="17.00" from="-541459597#5" to="-84718463#5"/>
    <trip id="18" depart="18.00" from="54581238#0" to="-54581238#2"/>
    <trip id="19" depart="19.00" from="-534224179#3" to="-458019740"/>
    <trip id="20" depart="20.00" from="199827587#6" to="171731747#3"/>
    <trip id="21" depart="21.00" from="-173046311#1" to="-170534220#0"/>
    <trip id="22" depart="22.00" from="170258832#0" to="-72631490#2"/>
    <trip id="23" depart="23.00" from="173019253" to="199829833#1"/>
    <trip id="24" depart="24.00" from="171731747#4" to="823732387#2"/>
    <trip id="25" depart="25.00" from="-229731894" to="-224838020#0"/>
    <trip id="26" depart="26.00" from="-171861190#0" to="297832767#0"/>
    <trip id="27" depart="27.00" from="564589320#1" to="-173019244#3"/>
    <trip id="28" depart="28.00" from="171860084#6" to="230316643"/>
    <trip id="29" depart="29.00" from="199827591#1" to="173094011"/>
    <trip id="30" depart="30.00" from="277744186#1" to="161701303#3"/>
    <trip id="31" depart="31.00" from="-121671233#0" to="171860081#6"/>
    <trip id="32" depart="32.00" from="-170534219#0" to="72631490#2"/>
    <trip id="33" depart="33.00" from="221267221#2" to="178733942#1"/>
    <trip id="34" depart="34.00" from="170258801#7" to="-170258833#2"/>
    <trip id="35" depart="35.00" from="-823732387#2" to="534224181#0"/>
    <trip id="36" depart="36.00" from="541459597#4" to="171860084#6"/>
    <trip id="37" depart="37.00" from="-171862381#0" to="170534218"/>
    <trip id="38" depart="38.00" from="534224181#0" to="-199829833#5"/>
    <trip id="39" depart="39.00" from="-564589322#3" to="170258801#10"/>
    <trip id="40" depart="40.00" from="-447977221" to="-541459596#1"/>
    <trip id="41" depart="41.00" from="161701303#7" to="-16266662#0"/>
    <trip id="42" depart="42.00" from="-179790904#1" to="171860081#3"/>
    <trip id="43" depart="43.00" from="54581238#2" to="169620645#5"/>
    <trip id="44" depart="44.00" from="170258833#3" to="-54581238#8"/>
    <trip id="45" depart="45.00" from="171860084#2" to="170534220#0"/>
    <trip id="46" depart="46.00" from="-297832767#6" to="-173019252#0"/>
    <trip id="47" depart="47.00" from="173019252#0" to="173019406#0"/>
    <trip id="48" depart="48.00" from="171861191" to="-35028013#0"/>
    <trip id="49" depart="49.00" from="173019246#1" to="-224838020#0"/>
    <trip id="50" depart="50.00" from="33869095#4" to="173046311#1"/>
    <trip id="51" depart="51.00" from="173094012#2" to="84718463#4"/>
    <trip id="52" depart="52.00" from="170258833#1" to="244010345#1"/>
    <trip id="53" depart="53.00" from="173019259#1" to="-35028013#0"/>
    <trip id="54" depart="54.00" from="173019252#9" to="-199829833#1"/>
    <trip id="55" depart="55.00" from="-84718463#7" to="171860081#7"/>
    <trip id="56" depart="56.00" from="-72631490#1" to="199827588#5"/>
    <trip id="57" depart="57.00" from="-297832767#7" to="161685587"/>
    <trip id="58" depart="58.00" from="54581238#5" to="-297832767#5"/>
    <trip id="59" depart="59.00" from="-224838020#0" to="277744185#0"/>
    <trip id="60" depart="60.00" from="32920678#0" to="173019246#4"/>
    <trip id="61" depart="61.00" from="-199829833#4" to="-35028013#1"/>
    <trip id="62" depart="62.00" from="23892336#2" to="35028013#2"/>
    <trip id="63" depart="63.00" from="541459598#1" to="170258833#3"/>
    <trip id="64" depart="64.00" from="171860081#0" to="-221267221#2"/>
    <trip id="65" depart="65.00" from="-171861192#1" to="29257863#7"/>
    <trip id="66" depart="66.00" from="-173094011" to="-171862381#0"/>
    <trip id="67" depart="67.00" from="-54581238#3" to="171861190#0"/>
    <trip id="68" depart="68.00" from="-823732387#2" to="-338078744#1"/>
    <trip id="69" depart="69.00" from="161685581#0" to="-171861191"/>
    <trip id="70" depart="70.00" from="-823732387#1" to="-338078744#1"/>
    <trip id="71" depart="71.00" from="-35028013#1" to="-230687301#1"/>
    <trip id="72" depart="72.00" from="-54581238#12" to="-171860080#2"/>
    <trip id="73" depart="73.00" from="-541459598#0" to="171860083"/>
    <trip id="74" depart="74.00" from="32920748#0" to="161701303#1"/>
    <trip id="75" depart="75.00" from="-541459596#4" to="-23892336#1"/>
    <trip id="76" depart="76.00" from="-170534220#0" to="571518215#2"/>
    <trip id="77" depart="77.00" from="29257863#0" to="-173046311#0"/>
    <trip id="78" depart="78.00" from="173019246#0" to="-564589322#1"/>
    <trip id="79" depart="79.00" from="170258806#2" to="29257863#8"/>
    <trip id="80" depart="80.00" from="170258832#0" to="173019246#4"/>
    <trip id="81" depart="81.00" from="31557649#3" to="107948695#4"/>
    <trip id="82" depart="82.00" from="-170258833#1" to="199827591#3"/>
    <trip id="83" depart="83.00" from="221267221#3" to="170258830#0"/>
    <trip id="84" depart="84.00" from="173019250#1" to="-173094011"/>
    <trip id="85" depart="85.00" from="171732990" to="169620645#4"/>
    <trip id="86" depart="86.00" from="-173019245#0" to="199827591#3"/>
    <trip id="87" depart="87.00" from="244010340" to="-564589322#3"/>
    <trip id="88" depart="88.00" from="571518215#2" to="-173019246#2"/>
    <trip id="89" depart="89.00" from="170258832#3" to="170258831#1"/>
    <trip id="90" depart="90.00" from="171860084#6" to="-121671233#1"/>
    <trip id="91" depart="91.00" from="29257863#2" to="-32920678#1"/>
    <trip id="92" depart="92.00" from="-161685598#0" to="179790904#1"/>
    <trip id="93" depart="93.00" from="-241410644#5" to="-173046309"/>
    <trip id="94" depart="94.00" from="199827587#0" to="-230687301#0"/>
    <trip id="95" depart="95.00" from="474563700" to="171860081#7"/>
    <trip id="96" depart="96.00" from="-170295044#1" to="170261285#1"/>
    <trip id="97" depart="97.00" from="-173046309" to="-107948695#4"/>
    <trip id="98" depart="98.00" from="31557649#3" to="199827588#5"/>
    <trip id="99" depart="99.00" from="564589327" to="170261286#2"/>
    <trip id="100" depart="100.00" from="474563700" to="-541459596#3"/>
    <trip id="101" depart="101.00" from="-534224179#5" to="-277744186#1"/>
    <trip id="102" depart="102.00" from="-534224181#2" to="-534224179#0"/>
    <trip id="103" depart="103.00" from="54581238#5" to="173094012#2"/>
    <trip id="104" depart="104.00" from="170258801#3" to="170258830#0"/>
    <trip id="105" depart="105.00" from="171731747#1" to="171977864"/>
    <trip id="106" depart="106.00" from="173019244#3" to="-170258833#2"/>
    <trip id="107" depart="107.00" from="161685598#0" to="-170258832#0"/>
    <trip id="108" depart="108.00" from="-171731750#2" to="31557649#3"/>
    <trip id="109" depart="109.00" from="107948695#4" to="241410645#1"/>
    <trip id="110" depart="110.00" from="-230687300#3" to="107948695#2"/>
    <trip id="111" depart="111.00" from="31557649#3" to="-241567240#0"/>
    <trip id="112" depart="112.00" from="541459596#3" to="161685595#1"/>
    <trip id="113" depart="113.00" from="170261285#0" to="541459610"/>
    <trip id="114" depart="114.00" from="170258801#3" to="154117671#2"/>
    <trip id="115" depart="115.00" from="571518215#2" to="-277744185#0"/>
    <trip id="116" depart="116.00" from="-173019246#4" to="33869095#8"/>
    <trip id="117" depart="117.00" from="199827587#2" to="171860084#8"/>
    <trip id="118" depart="118.00" from="-84718463#3" to="23892336#3"/>
    <trip id="119" depart="119.00" from="241410644#5" to="-170534218"/>
    <trip id="120" depart="120.00" from="-541459597#5" to="161685595#1"/>
    <trip id="121" depart="121.00" from="171860084#1" to="170258801#11"/>
    <trip id="122" depart="122.00" from="173019246#0" to="-173019255#1"/>
    <trip id="123" depart="123.00" from="-173019252#0" to="-54581238#1"/>
    <trip id="124" depart="124.00" from="-171861194#0" to="32920681"/>
    <trip id="125" depart="125.00" from="241410645#3" to="277744185#0"/>
    <trip id="126" depart="126.00" from="-35028013#2" to="564618084"/>
    <trip id="127" depart="127.00" from="171860084#6" to="161685581#4"/>
    <trip id="128" depart="128.00" from="-121304145#1" to="297832767#4"/>
    <trip id="129" depart="129.00" from="199827587#2" to="-16266662#0"/>
    <trip id="130" depart="130.00" from="-171731747#3" to="-84718463#5"/>
    <trip id="131" depart="131.00" from="-230304713#1" to="-173094013#1"/>
    <trip id="132" depart="132.00" from="823732386#7" to="23892336#1"/>
    <trip id="133" depart="133.00" from="170258832#3" to="-31557649#3"/>
    <trip id="134" depart="134.00" from="-241410644#1" to="564618084"/>
    <trip id="135" depart="135.00" from="-31557649#1" to="29257863#8"/>
    <trip id="136" depart="136.00" from="244010345#0" to="-173046311#0"/>
    <trip id="137" depart="137.00" from="-171861194#2" to="244010345#1"/>
    <trip id="138" depart="138.00" from="29257863#2" to="-277744185#0"/>
    <trip id="139" depart="139.00" from="171862381#0" to="171731747#1"/>
    <trip id="140" depart="140.00" from="-24790441#1" to="449663013#0"/>
    <trip id="141" depart="141.00" from="173019256#0" to="-170534220#0"/>
    <trip id="142" depart="142.00" from="170534220#0" to="230316647"/>
    <trip id="143" depart="143.00" from="170258839#2" to="-297832767#6"/>
    <trip id="144" depart="144.00" from="32920678#0" to="121304145#1"/>
    <trip id="145" depart="145.00" from="-447977221" to="-54581238#8"/>
    <trip id="146" depart="146.00" from="31557649#2" to="29257863#0"/>
    <trip id="147" depart="147.00" from="-534224181#0" to="-297832767#2"/>
    <trip id="148" depart="148.00" from="173094011" to="199827587#2"/>
    <trip id="149" depart="149.00" from="230316647" to="29257863#0"/>
    <trip id="150" depart="150.00" from="-173019406#1" to="-31557649#3"/>
    <trip id="151" depart="151.00" from="449663013#1" to="-230316648"/>
    <trip id="152" depart="152.00" from="-277744185#0" to="54581238#6"/>
    <trip id="153" depart="153.00" from="32920681" to="23892336#4"/>
    <trip id="154" depart="154.00" from="173019246#5" to="-171861194#2"/>
    <trip id="155" depart="155.00" from="170258833#1" to="199827587#1"/>
    <trip id="156" depart="156.00" from="29257863#5" to="-534224181#2"/>
    <trip id="157" depart="157.00" from="-221268082#0" to="171860084#6"/>
    <trip id="158" depart="158.00" from="-224838020#0" to="221267221#1"/>
    <trip id="159" depart="159.00" from="35028013#0" to="-564618084"/>
    <trip id="160" depart="160.00" from="161685581#4" to="29257863#7"/>
    <trip id="161" depart="161.00" from="-170258833#3" to="-171977720"/>
    <trip id="162" depart="162.00" from="29257863#5" to="171861190#2"/>
    <trip id="163" depart="163.00" from="170258835#1" to="-564589327"/>
    <trip id="164" depart="164.00" from="171861194#1" to="179790904#1"/>
    <trip id="165" depart="165.00" from="571518215#0" to="-173046311#0"/>
    <trip id="166" depart="166.00" from="171861194#3" to="297832767#5"/>
    <trip id="167" depart="167.00" from="173019246#3" to="221268082#1"/>
    <trip id="168" depart="168.00" from="35028013#0" to="-541459596#12"/>
    <trip id="169" depart="169.00" from="534224179#2" to="-23892336#1"/>
    <trip id="170" depart="170.00" from="54581238#4" to="-171861190#1"/>
    <trip id="171" depart="171.00" from="171731752#1" to="297832767#5"/>
    <trip id="172" depart="172.00" from="-121671233#1" to="-171861194#2"/>
    <trip id="173" depart="173.00" from="170261285#0" to="173019252#0"/>
    <trip id="174" depart="174.00" from="230687301#0" to="-474563700"/>
    <trip id="175" depart="175.00" from="29257863#7" to="241567240#3"/>
    <trip id="176" depart="176.00" from="564618084" to="171860084#2"/>
    <trip id="177" depart="177.00" from="169620645#6" to="199827591#1"/>
    <trip id="178" depart="178.00" from="169620645#0" to="171862381#0"/>
    <trip id="179" depart="179.00" from="170258832#3" to="-171731747#4"/>
    <trip id="180" depart="180.00" from="-121304145#0" to="-161685598#0"/>
    <trip id="181" depart="181.00" from="-171731747#2" to="199827591#7"/>
    <trip id="182" depart="182.00" from="107948695#4" to="171860084#6"/>
    <trip id="183" depart="183.00" from="199827587#1" to="823732387#1"/>
    <trip id="184" depart="184.00" from="-171861194#2" to="-338078744#1"/>
    <trip id="185" depart="185.00" from="-171860080#0" to="161701303#3"/>
    <trip id="186" depart="186.00" from="221268082#0" to="72631490#2"/>
    <trip id="187" depart="187.00" from="-534224179#0" to="458019742"/>
    <trip id="188" depart="188.00" from="-170258832#2" to="-170295044#3"/>
    <trip id="189" depart="189.00" from="-541459610" to="541459610"/>
    <trip id="190" depart="190.00" from="-84718463#7" to="171860084#1"/>
    <trip id="191" depart="191.00" from="-241567240#3" to="199827591#7"/>
    <trip id="192" depart="192.00" from="-244002119" to="24790441#2"/>
    <trip id="193" depart="193.00" from="449663013#1" to="171731747#2"/>
    <trip id="194" depart="194.00" from="170258835#0" to="173019255#1"/>
    <trip id="195" depart="195.00" from="-24790441#1" to="161701303#6"/>
    <trip id="196" depart="196.00" from="-170258832#2" to="170261285#6"/>
    <trip id="197" depart="197.00" from="23892336#4" to="199827591#0"/>
    <trip id="198" depart="198.00" from="-230687303" to="171860084#6"/>
    <trip id="199" depart="199.00" from="161685581#4" to="170534218"/>
    <trip id="200" depart="200.00" from="29257863#5" to="297832767#5"/>
    <trip id="201" depart="201.00" from="170258801#7" to="170261286#4"/>
    <trip id="202" depart="202.00" from="170534220#1" to="171861190#1"/>
    <trip id="203" depart="203.00" from="-230304713#1" to="161685598#1"/>
    <trip id="204" depart="204.00" from="161701303#9" to="823732387#1"/>
    <trip id="205" depart="205.00" from="230304713#1" to="170258839#2"/>
    <trip id="206" depart="206.00" from="-224838020#0" to="171731747#5"/>
    <trip id="207" depart="207.00" from="541459610" to="-297832767#6"/>
    <trip id="208" depart="208.00" from="230316643" to="-121304145#1"/>
    <trip id="209" depart="209.00" from="170258832#3" to="173019252#2"/>
    <trip id="210" depart="210.00" from="170534220#0" to="-230316641#2"/>
    <trip id="211" depart="211.00" from="173019252#7" to="107948695#4"/>
    <trip id="212" depart="212.00" from="230304713#4" to="-564589322#2"/>
    <trip id="213" depart="213.00" from="170258833#2" to="-23892336#1"/>
    <trip id="214" depart="214.00" from="-534224179#0" to="-170258832#2"/>
    <trip id="215" depart="215.00" from="-173046309" to="277744186#1"/>
    <trip id="216" depart="216.00" from="-54581238#12" to="-449663013#1"/>
    <trip id="217" depart="217.00" from="170261286#2" to="-241410645#3"/>
    <trip id="218" depart="218.00" from="541459600" to="-170534220#0"/>
    <trip id="219" depart="219.00" from="221268082#0" to="54581238#2"/>
    <trip id="220" depart="220.00" from="170258806#4" to="170295045"/>
    <trip id="221" depart="221.00" from="-541459596#9" to="-297832767#2"/>
    <trip id="222" depart="222.00" from="-297832767#7" to="571518215#3"/>
    <trip id="223" depart="223.00" from="-221267221#3" to="29257863#5"/>
    <trip id="224" depart="224.00" from="-199829833#5" to="161685581#5"/>
    <trip id="225" depart="225.00" from="170258839#2" to="-23892336#2"/>
    <trip id="226" depart="226.00" from="297832767#4" to="-541459596#3"/>
    <trip id="227" depart="227.00" from="173019252#9" to="170258835#0"/>
    <trip id="228" depart="228.00" from="-161685598#0" to="199827587#2"/>
    <trip id="229" depart="229.00" from="338078744#0" to="-170258832#4"/>
    <trip id="230" depart="230.00" from="-224838020#0" to="823732387#1"/>
    <trip id="231" depart="231.00" from="170258839#2" to="170295044#0"/>
    <trip id="232" depart="232.00" from="-171861190#1" to="199827587#5"/>
    <trip id="233" depart="233.00" from="541459601#1" to="161685581#4"/>
    <trip id="234" depart="234.00" from="33869095#6" to="173019405"/>
    <trip id="235" depart="235.00" from="169620645#0" to="173019405"/>
    <trip id="236" depart="236.00" from="170261285#0" to="-170258833#0"/>
    <trip id="237" depart="237.00" from="297832767#5" to="230316647"/>
    <trip id="238" depart="238.00" from="29257863#5" to="170258839#2"/>
    <trip id="239" depart="239.00" from="23892336#1" to="-171861192#2"/>
    <trip id="240" depart="240.00" from="277744185#0" to="23892336#1"/>
    <trip id="241" depart="241.00" from="121304145#0" to="534224179#0"/>
    <trip id="242" depart="242.00" from="-541459596#3" to="-31557649#3"/>
    <trip id="243" depart="243.00" from="-171731750#1" to="-687360884#1"/>
    <trip id="244" depart="244.00" from="33869095#6" to="171860081#7"/>
    <trip id="245" depart="245.00" from="-173094011" to="-54581238#4"/>
    <trip id="246" depart="246.00" from="-474563700" to="29257863#7"/>
    <trip id="247" depart="247.00" from="161701303#3" to="-534224179#0"/>
    <trip id="248" depart="248.00" from="-173019407#0" to="199827588#0"/>
    <trip id="249" depart="249.00" from="84718463#3" to="171862381#0"/>
    <trip id="250" depart="250.00" from="-338078744#1" to="-35028013#0"/>
    <trip id="251" depart="251.00" from="29257863#5" to="-35028013#0"/>
    <trip id="252" depart="252.00" from="-564589327" to="154117671#0"/>
    <trip id="253" depart="253.00" from="199827588#0" to="-107948695#4"/>
    <trip id="254" depart="254.00" from="54581238#6" to="161701303#3"/>
    <trip id="255" depart="255.00" from="54581238#0" to="161685595#1"/>
    <trip id="256" depart="256.00" from="-277744185#0" to="-534224181#0"/>
    <trip id="257" depart="257.00" from="-241410644#5" to="31557649#1"/>
    <trip id="258" depart="258.00" from="170258833#1" to="170534220#0"/>
    <trip id="259" depart="259.00" from="-230316903" to="-338078744#0"/>
    <trip id="260" depart="260.00" from="474563700" to="170258806#2"/>
    <trip id="261" depart="261.00" from="-241410645#3" to="170258806#4"/>
    <trip id="262" depart="262.00" from="171860081#0" to="199827591#7"/>
    <trip id="263" depart="263.00" from="-171861191" to="199827587#0"/>
    <trip id="264" depart="264.00" from="-121304145#0" to="229731889#1"/>
    <trip id="265" depart="265.00" from="-31557649#3" to="171861192#2"/>
    <trip id="266" depart="266.00" from="-221267221#2" to="297832767#2"/>
    <trip id="267" depart="267.00" from="179790904#1" to="277744185#0"/>
    <trip id="268" depart="268.00" from="169620645#4" to="541459596#4"/>
    <trip id="269" depart="269.00" from="161701303#1" to="171977864"/>
    <trip id="270" depart="270.00" from="241410643#0" to="-171860080#0"/>
    <trip id="271" depart="271.00" from="170261285#0" to="23892336#4"/>
    <trip id="272" depart="272.00" from="277744185#0" to="171731752#1"/>
    <trip id="273" depart="273.00" from="297832767#4" to="171860086#3"/>
    <trip id="274" depart="274.00" from="-823732387#1" to="199827591#7"/>
    <trip id="275" depart="275.00" from="229731892#0" to="-297832767#0"/>
    <trip id="276" depart="276.00" from="161701303#1" to="-297832767#1"/>
    <trip id="277" depart="277.00" from="-564589329#1" to="171860096#1"/>
    <trip id="278" depart="278.00" from="170258806#2" to="170261285#6"/>
    <trip id="279" depart="279.00" from="170258801#2" to="823732387#2"/>
    <trip id="280" depart="280.00" from="-171861191" to="161701303#9"/>
    <trip id="281" depart="281.00" from="-35028013#1" to="-541459600"/>
    <trip id="282" depart="282.00" from="221268082#0" to="-823732387#2"/>
    <trip id="283" depart="283.00" from="-541459597#5" to="-173094012#1"/>
    <trip id="284" depart="284.00" from="338078744#1" to="-173019246#0"/>
    <trip id="285" depart="285.00" from="-84718463#7" to="161701303#3"/>
    <trip id="286" depart="286.00" from="-171860096#1" to="823732387#2"/>
    <trip id="287" depart="287.00" from="571518215#2" to="221268082#0"/>
    <trip id="288" depart="288.00" from="169620645#2" to="-199829833#2"/>
    <trip id="289" depart="289.00" from="161701303#1" to="297832767#6"/>
    <trip id="290" depart="290.00" from="23892336#2" to="-230316641#2"/>
    <trip id="291" depart="291.00" from="241410645#3" to="-173094013#1"/>
    <trip id="292" depart="292.00" from="-541459598#1" to="338078744#1"/>
    <trip id="293" depart="293.00" from="297832767#6" to="449663013#0"/>
    <trip id="294" depart="294.00" from="-277744186#1" to="29257863#8"/>
    <trip id="295" depart="295.00" from="171861194#1" to="-173094011"/>
    <trip id="296" depart="296.00" from="-173019252#3" to="-338078744#1"/>
    <trip id="297" depart="297.00" from="32920681" to="221267221#3"/>
    <trip id="298" depart="298.00" from="161701303#6" to="199827591#7"/>
    <trip id="299" depart="299.00" from="173094011" to="29257863#0"/>
    <trip id="300" depart="300.00" from="-173019246#3" to="-199829833#2"/>
    <trip id="301" depart="301.00" from="230316641#2" to="241410644#3"/>
    <trip id="302" depart="302.00" from="35028013#0" to="-171731752#1"/>
    <trip id="303" depart="303.00" from="199827591#3" to="173019246#2"/>
    <trip id="304" depart="304.00" from="161701303#0" to="199829833#2"/>
    <trip id="305" depart="305.00" from="-171862381#0" to="823732386#2"/>
    <trip id="306" depart="306.00" from="-54581238#6" to="199827588#5"/>
    <trip id="307" depart="307.00" from="54581238#1" to="541459599"/>
    <trip id="308" depart="308.00" from="230304713#1" to="-173094011"/>
    <trip id="309" depart="309.00" from="-541459596#6" to="199829833#2"/>
    <trip id="310" depart="310.00" from="54581238#2" to="173019252#8"/>
    <trip id="311" depart="311.00" from="-297832767#2" to="170261285#6"/>
    <trip id="312" depart="312.00" from="199827587#2" to="199827588#5"/>
    <trip id="313" depart="313.00" from="173019246#0" to="571518215#2"/>
    <trip id="314" depart="314.00" from="171861194#0" to="-171731752#1"/>
    <trip id="315" depart="315.00" from="-221268082#0" to="297832767#1"/>
    <trip id="316" depart="316.00" from="170534220#0" to="564589320#0"/>
    <trip id="317" depart="317.00" from="-221268082#0" to="179790904#1"/>
    <trip id="318" depart="318.00" from="-297832767#4" to="534224181#0"/>
    <trip id="319" depart="319.00" from="170258833#2" to="-534224179#1"/>
    <trip id="320" depart="320.00" from="-564589325" to="35028013#2"/>
    <trip id="321" depart="321.00" from="-277744185#0" to="170295044#0"/>
    <trip id="322" depart="322.00" from="-54581238#12" to="-170534216#2"/>
    <trip id="323" depart="323.00" from="564589323#2" to="-173019252#9"/>
    <trip id="324" depart="324.00" from="161685595#1" to="-84718463#4"/>
    <trip id="325" depart="325.00" from="171860084#2" to="170258826#1"/>
    <trip id="326" depart="326.00" from="171860081#3" to="-338078744#0"/>
    <trip id="327" depart="327.00" from="171860084#6" to="-16266662#0"/>
    <trip id="328" depart="328.00" from="230316647" to="-199827592#0"/>
    <trip id="329" depart="329.00" from="84718463#5" to="173094011"/>
    <trip id="330" depart="330.00" from="171731752#1" to="107948695#0"/>
    <trip id="331" depart="331.00" from="161701303#3" to="-171731747#4"/>
    <trip id="332" depart="332.00" from="170261285#0" to="-171861190#2"/>
    <trip id="333" depart="333.00" from="29257863#7" to="-541459596#4"/>
    <trip id="334" depart="334.00" from="-564589327" to="31557649#3"/>
    <trip id="335" depart="335.00" from="-170258833#0" to="297832767#1"/>
    <trip id="336" depart="336.00" from="244002119" to="171731752#1"/>
    <trip id="337" depart="337.00" from="173019251" to="171731750#2"/>
    <trip id="338" depart="338.00" from="-241410646" to="170258806#4"/>
    <trip id="339" depart="339.00" from="-297832767#6" to="170258833#1"/>
    <trip id="340" depart="340.00" from="-230687304" to="199829833#1"/>
    <trip id="341" depart="341.00" from="541459596#0" to="171860081#6"/>
    <trip id="342" depart="342.00" from="221267221#2" to="35028013#1"/>
    <trip id="343" depart="343.00" from="-534224181#0" to="-224835309#1"/>
    <trip id="344" depart="344.00" from="173019245#0" to="-171860080#2"/>
    <trip id="345" depart="345.00" from="241410645#3" to="173019252#9"/>
    <trip id="346" depart="346.00" from="173019246#1" to="-297832767#1"/>
    <trip id="347" depart="347.00" from="571518215#2" to="171860084#0"/>
    <trip id="348" depart="348.00" from="170261285#4" to="23892336#2"/>
    <trip id="349" depart="349.00" from="161685581#0" to="-23892336#2"/>
    <trip id="350" depart="350.00" from="170258806#2" to="199829833#3"/>
    <trip id="351" depart="351.00" from="171861191" to="-170534216#1"/>
    <trip id="352" depart="352.00" from="23892336#0" to="170534218"/>
    <trip id="353" depart="353.00" from="170258833#3" to="-171861194#2"/>
    <trip id="354" depart="354.00" from="171731750#2" to="170258835#1"/>
    <trip id="355" depart="355.00" from="-541459610" to="-277744186#1"/>
    <trip id="356" depart="356.00" from="33869095#6" to="173094011"/>
    <trip id="357" depart="357.00" from="-170295045" to="173019251"/>
    <trip id="358" depart="358.00" from="173019406#0" to="-173019255#0"/>
    <trip id="359" depart="359.00" from="29257863#7" to="-564589327"/>
    <trip id="360" depart="360.00" from="-31557649#3" to="199827591#7"/>
    <trip id="361" depart="361.00" from="-179790904#1" to="-72631490#2"/>
    <trip id="362" depart="362.00" from="171862381#0" to="-230687301#0"/>
    <trip id="363" depart="363.00" from="32920678#1" to="534224181#1"/>
    <trip id="364" depart="364.00" from="170261285#1" to="107948695#4"/>
    <trip id="365" depart="365.00" from="84718463#4" to="-173094013#1"/>
    <trip id="366" depart="366.00" from="338078744#1" to="-24790441#1"/>
    <trip id="367" depart="367.00" from="541459610" to="-23892336#1"/>
    <trip id="368" depart="368.00" from="-171731747#5" to="241410644#3"/>
    <trip id="369" depart="369.00" from="241567240#2" to="221268082#0"/>
    <trip id="370" depart="370.00" from="171731752#1" to="32920748#1"/>
    <trip id="371" depart="371.00" from="199827587#5" to="224838020#0"/>
    <trip id="372" depart="372.00" from="-23892336#0" to="-173046309"/>
    <trip id="373" depart="373.00" from="121304145#1" to="170258832#0"/>
    <trip id="374" depart="374.00" from="170258801#3" to="23892336#3"/>
    <trip id="375" depart="375.00" from="224835309#1" to="-230316643"/>
    <trip id="376" depart="376.00" from="224838020#1" to="170258801#3"/>
    <trip id="377" depart="377.00" from="170534219#0" to="-564589323#2"/>
    <trip id="378" depart="378.00" from="-221268082#0" to="-173019406#0"/>
    <trip id="379" depart="379.00" from="171860086#1" to="-84718463#4"/>
    <trip id="380" depart="380.00" from="171860081#0" to="-171732991"/>
    <trip id="381" depart="381.00" from="173019247#0" to="171860081#3"/>
    <trip id="382" depart="382.00" from="-121671233#1" to="-173094012#2"/>
    <trip id="383" depart="383.00" from="173019247#1" to="84718463#4"/>
    <trip id="384" depart="384.00" from="173019252#9" to="161685595#1"/>
    <trip id="385" depart="385.00" from="-170258832#3" to="-541459597#5"/>
    <trip id="386" depart="386.00" from="199827591#3" to="173019252#0"/>
    <trip id="387" depart="387.00" from="-173046309" to="29257863#1"/>
    <trip id="388" depart="388.00" from="199827587#0" to="173019256#1"/>
    <trip id="389" depart="389.00" from="-474563700" to="541459597#1"/>
    <trip id="390" depart="390.00" from="173019246#4" to="84718463#4"/>
    <trip id="391" depart="391.00" from="-541459609#1" to="221267221#2"/>
    <trip id="392" depart="392.00" from="169620645#2" to="199827587#5"/>
    <trip id="393" depart="393.00" from="-173019246#4" to="-199829833#2"/>
    <trip id="394" depart="394.00" from="169620645#2" to="54581238#6"/>
    <trip id="395" depart="395.00" from="229731892#0" to="199827587#5"/>
    <trip id="396" depart="396.00" from="564589327" to="541459596#12"/>
    <trip id="397" depart="397.00" from="-171860096#1" to="-54581238#6"/>
    <trip id="398" depart="398.00" from="-23892336#3" to="-170534219#1"/>
    <trip id="399" depart="399.00" from="534224179#2" to="33869095#7"/>
</routes>
